25
 energy: 0.000000000000 xtb: 6.6.1 (8d0f1dd)
C            3.23720132972391        1.16630909158653        0.08434468864950
N            2.29877796055224        0.07527476373246        0.03981602671198
C            2.58028186251803       -1.21425391179017        0.03006175752192
N            1.43813944744728       -1.93419254010258        0.00098261751768
C            0.39035684826767       -1.05887462812143       -0.00790371763344
C            0.93510047688824        0.21347817468824        0.01709077332874
C            0.09450143016486        1.40504290868848       -0.00410946993748
O            0.49712746915594        2.54126690785742       -0.00342325656480
N           -1.25076628431515        1.06271869620815       -0.03085477937476
C           -2.21907191394203        2.15522079838987       -0.05001256521996
C           -1.81739470187490       -0.20012724136556       -0.04692818139228
O           -2.99983858926755       -0.37846413507442       -0.07008877579474
N           -0.92618577614240       -1.30210203518959       -0.03682761236648
C           -1.46982251276835       -2.64643077634382       -0.06029819901142
H            3.71247229913541        1.21471443890471        1.06488839270555
H            4.00791460421487        1.03430799217987       -0.67357688121503
H            2.69909982127087        2.09770098766290       -0.09130154035862
H            3.56654087521359       -1.63682977417947        0.04233139674524
H           -1.67107945562430        3.09322822573871       -0.02552706696334
H           -2.82428927394145        2.09428605349656       -0.95318074103337
H           -2.87644002486466        2.07745706351925        0.81450059976605
H           -1.17061985538665       -3.19584861009707        0.83242224714061
H           -1.14560246782873       -3.17511580834413       -0.95688266944647
H           -2.55549768731684       -2.55659960601237       -0.07459039105944
H            1.38130842369251       -2.94313824728853       -0.01389874052104
25
 energy: -0.883015492484 xtb: 6.6.1 (8d0f1dd)
C            3.23929179797209        1.18455517048782        0.08600077014776
N            2.30266864411249        0.08750838469366        0.03809470763005
C            2.58043595220581       -1.25472929894907        0.03032244847261
N            1.40794551528584       -2.00177414709045       -0.00017305293344
C            0.40183011447392       -1.06650791539028       -0.00833979458062
C            0.93000435778516        0.22179333177187        0.01554564968909
C            0.10172248704701        1.40768105584689       -0.00417554618788
O            0.49369379602978        2.57602154374774       -0.00207936069808
N           -1.26042009393679        1.06626611183960       -0.03120515199774
C           -2.22977568508782        2.15803033153298       -0.05030353202421
C           -1.81599266063213       -0.18792624097546       -0.04783539227291
O           -3.01145098806635       -0.37362686969324       -0.07148366549410
N           -0.92668783847391       -1.28875922137571       -0.03708324625154
C           -1.44506995990553       -2.63249128977676       -0.05939180049987
H            3.72534239892106        1.24243091116253        1.06442136573576
H            4.01055762969809        1.06433075883598       -0.67665563772909
H            2.70587261747242        2.12116600190053       -0.08540735964557
H            3.56641508523333       -1.65387298683018        0.04422882149551
H           -1.68306149011294        3.09832923142547       -0.02600602823971
H           -2.83732250065912        2.09953542654898       -0.95328859939536
H           -2.88945491284692        2.08266595056267        0.81385719545160
H           -1.12196877471969       -3.17171976893004        0.83307278685899
H           -1.09697288682168       -3.15213146876200       -0.95414053117513
H           -2.53010411916119       -2.55827143254391       -0.07392235959315
H            1.29471581915956       -3.07947478129562       -0.01701877456845
25
 energy: 9.793793846849 xtb: 6.6.1 (8d0f1dd)
C            3.24077857540010        1.19317309180696        0.08690409825062
N            2.30526384738908        0.08972906364418        0.03561005268984
C            2.57228554114900       -1.29069538845319        0.03150845781358
N            1.37443964738971       -2.06354285818705       -0.00082002032288
C            0.41234950864848       -1.07149887579888       -0.00888787726409
C            0.92613461271023        0.22447816317562        0.01376479120467
C            0.10806257938270        1.40287880723384       -0.00389412898025
O            0.48049716974115        2.58526885722108        0.00025045281525
N           -1.27147730056876        1.07559182915213       -0.03173526090368
C           -2.24049960798878        2.16687573841651       -0.05075356296649
C           -1.81149659598933       -0.17177422184883       -0.04883192714946
O           -3.01063674774498       -0.36943937502166       -0.07343982684637
N           -0.92608903962044       -1.26595079009711       -0.03738150221442
C           -1.41237145937188       -2.61455244961962       -0.05823955264290
H            3.73687842096469        1.26476441923324        1.06209753591779
H            4.01237478264598        1.09480032325521       -0.68130773763626
H            2.70688644927362        2.13381523085030       -0.07783990758280
H            3.56440471362645       -1.65795368215581        0.04727489372483
H           -1.69764355757872        3.11017616952795       -0.02662852155534
H           -2.85070705431569        2.10734838996591       -0.95283002550482
H           -2.90262688229735        2.09044402199911        0.81239210740524
H           -1.06357914382272       -3.14168055676434        0.83419273173763
H           -1.03854338734775       -3.12376243731114       -0.95096038943595
H           -2.49748440871302       -2.56920565985480       -0.07320760231995
H            1.19501364201064       -3.21025902162558       -0.02020336603922
25
 energy: 18.466012035466 xtb: 6.6.1 (8d0f1dd)
C            3.24105513435204        1.19616741278522        0.08702825849612
N            2.30700759815743        0.09013297694583        0.03423217434259
C            2.56704968921488       -1.30298408075762        0.03279672257632
N            1.35974539780067       -2.08835673000751       -0.00078033147079
C            0.41626909586971       -1.07547090768344       -0.00927168072501
C            0.92532500157451        0.22281763835341        0.01292154531604
C            0.11082498942007        1.40133311358867       -0.00344645797771
O            0.47330610076578        2.58443273052110        0.00182642967484
N           -1.27675000413202        1.08382175454286       -0.03216837435781
C           -2.24483983087584        2.17444533791205       -0.05110800552558
C           -1.81086754022455       -0.16453116764072       -0.04954459389239
O           -3.00956398818839       -0.36960438738203       -0.07486173165027
N           -0.92617091579987       -1.25337118044015       -0.03763316790825
C           -1.39652410621361       -2.60651215189499       -0.05754038596552
H            3.74129465830796        1.27086133098543        1.06016688400142
H            4.01104568408009        1.10837714920164       -0.68447840616100
H            2.70432652621003        2.13743889516462       -0.07326343705173
H            3.56620099931381       -1.65140819615098        0.04917721885719
H           -1.70475803784578        3.11905445585230       -0.02703797451980
H           -2.85580736791393        2.11310589935473       -0.95280677598756
H           -2.90754543388481        2.09623551487353        0.81171810488560
H           -1.03575741151101       -3.12476018584789        0.83576185061053
H           -1.01053225341889       -3.10801923029323       -0.94986596349744
H           -2.48141186432976       -2.58030430926227       -0.07283304988100
H            1.14929218424397       -3.28387289397652       -0.02195493999420
25
 energy: 23.996665563385 xtb: 6.6.1 (8d0f1dd)
C            3.24187143496913        1.19916161021657        0.08714378146469
N            2.30874468649173        0.09290370961928        0.03362319743165
C            2.56651992670440       -1.30209441406016        0.03412276742535
N            1.35748622295299       -2.09298352915559       -0.00043972757943
C            0.41813949873852       -1.07813364779307       -0.00953240776174
C            0.92594307388441        0.22134362637741        0.01240750012645
C            0.11197016958021        1.40185067980484       -0.00343174390324
O            0.47032556677328        2.58305003328576        0.00244734925087
N           -1.27794455817910        1.08765211497786       -0.03247647017634
C           -2.24582944552148        2.17704974144848       -0.05123881311367
C           -1.81118658789053       -0.16318273746784       -0.04978681076771
O           -3.00894880878401       -0.37093824732257       -0.07525634777965
N           -0.92605974814006       -1.24858213597120       -0.03777449564440
C           -1.39390955499971       -2.60376500290984       -0.05731312914480
H            3.74304040226824        1.27267186476957        1.05950312574510
H            4.01052435250893        1.11311079039934       -0.68537991080433
H            2.70428038418812        2.14036793996509       -0.07178626356394
H            3.56949993194192       -1.64113992399994        0.04965021877389
H           -1.70707050282357        3.12205222370866       -0.02722908258807
H           -2.85686449514254        2.11483536938273       -0.95289094881593
H           -2.90837015081107        2.09802349012911        0.81173081711281
H           -1.03155669687998       -3.11875237359694        0.83641497871668
H           -1.00622401313152       -3.10241148743876       -0.94973389839727
H           -2.47799191390773       -2.58311890881325       -0.07270013837810
H            1.13582513018184       -3.32994199681152       -0.02303963543429
25
 energy: 32.327242062909 xtb: 6.6.1 (8d0f1dd)
C            3.24360979500444        1.20365142614182        0.08723857378723
N            2.31072470747400        0.09888207773057        0.03307604753816
C            2.56761562005008       -1.29392918652178        0.03695621058625
N            1.35974679602595       -2.08670730401959        0.00064947023354
C            0.41945000966260       -1.07920683816415       -0.00982909413952
C            0.92688963639855        0.22138938137365        0.01191416579554
C            0.11236468435843        1.40487099358682       -0.00354362475688
O            0.46791835659896        2.58314760634441        0.00288512813237
N           -1.27785624636710        1.09116655304508       -0.03281307551297
C           -2.24640914888771        2.17825074104187       -0.05131580065881
C           -1.81203821750453       -0.16322272774120       -0.04981666156305
O           -3.00851283019995       -0.37151432185459       -0.07516062721580
N           -0.92572370951926       -1.24426368111348       -0.03792351001320
C           -1.39455415059264       -2.60196015610752       -0.05726335048822
H            3.74435078404537        1.27446750361904        1.05943088517872
H            4.01117500152022        1.11563093136299       -0.68543372062191
H            2.70672133614245        2.14488588296679       -0.07162896826243
H            3.57309112806217       -1.62677594211846        0.04866185684584
H           -1.70940390658504        3.12393284561049       -0.02732978546870
H           -2.85742504502102        2.11534306387606       -0.95296646499796
H           -2.90866636761904        2.09852373866521        0.81188378474646
H           -1.03259203392339       -3.11515034766188        0.83656512604687
H           -1.00716780295035       -3.09898846706066       -0.94971700801643
H           -2.47797437739509       -2.58302440490116       -0.07270205793806
H            1.12688028619434       -3.40037057935631       -0.02478358704251
25
 energy: 39.054214423761 xtb: 6.6.1 (8d0f1dd)
C            3.24589608387953        1.21107422090991        0.08677294961357
N            2.31288054777259        0.10807719872471        0.03287048566232
C            2.56756491828029       -1.28382812188268        0.04319353567135
N            1.36147173319894       -2.08006885735371        0.00464587463633
C            0.42294239869670       -1.07864191075019       -0.00941477700505
C            0.92767849871013        0.22478884062739        0.01211533277252
C            0.11312325788058        1.40980746887979       -0.00314892720568
O            0.46340734748694        2.58601708135108        0.00294361693812
N           -1.27823725999802        1.09645185755755       -0.03303743795110
C           -2.24800135296054        2.18031689444460       -0.05144293242976
C           -1.81138272902627       -0.16203457556873       -0.04985093646170
O           -3.00662103991468       -0.37166007785479       -0.07524048890283
N           -0.92408188305384       -1.23678982457273       -0.03818865252659
C           -1.39225192038224       -2.59786719063809       -0.05721754684905
H            3.74616308607120        1.27927701432997        1.05889351737691
H            4.01248903916978        1.12099750947552       -0.68604777961731
H            2.71016345588836        2.15285363123824       -0.07193955925387
H            3.57646771124437       -1.60784763298720        0.04668281615126
H           -1.71360911653855        3.12723281417805       -0.02743397822793
H           -2.85897856591529        2.11604502916962       -0.95312749878780
H           -2.91008820883504        2.09920224216561        0.81190960717755
H           -1.02910747884031       -3.10883032654383        0.83636360519090
H           -1.00319976586908       -3.09312686943072       -0.94907277109417
H           -2.47513781651569       -2.58262189287568       -0.07290121031466
H            1.10266336454263       -3.51979573384969       -0.03129293236877
25
 energy: 33.535934524998 xtb: 6.6.1 (8d0f1dd)
C            3.25194327974885        1.22814436436187        0.08634082060746
N            2.31792632593752        0.13169217421613        0.03203564684759
C            2.56060093568531       -1.25082228746378        0.05211698942423
N            1.36853976745137       -2.05019344245500        0.01363765443230
C            0.43434907801412       -1.07099921113653       -0.00928493006044
C            0.93157089928310        0.23856036959482        0.01160668159838
C            0.11570397829645        1.42531621727821       -0.00243963907676
O            0.45007862607379        2.59167476263325        0.00303301789406
N           -1.27728783427641        1.11157146983281       -0.03354177068423
C           -2.25074872969881        2.18536374407378       -0.05171643093801
C           -1.80750015889519       -0.16146007224234       -0.04983427252141
O           -2.99896051897478       -0.37349649710664       -0.07537918109980
N           -0.91761556772993       -1.21681670029725       -0.03855846774155
C           -1.38535086405346       -2.58860872452886       -0.05678793812047
H            3.74924049897005        1.28665127361107        1.05810350225436
H            4.01402578664227        1.13145805540576       -0.68726078170475
H            2.71595381873642        2.16922851066388       -0.07144142996361
H            3.57756315603302       -1.56170446868181        0.04433210314995
H           -1.72180197044882        3.13411575433344       -0.02773378556765
H           -2.86139874226844        2.11681629161842       -0.95347513113017
H           -2.91225657069224        2.10004972843237        0.81198150533934
H           -1.01843710937874       -3.09548407726945        0.83400911303212
H           -0.99213927507592       -3.08055921995353       -0.94551071639855
H           -2.46669143550155       -2.58509210903939       -0.07278962405872
H            1.03490693109449       -3.82637711713723       -0.04440902331903
25
 energy: 28.293032230338 xtb: 6.6.1 (8d0f1dd)
C            3.25439828788734        1.24165797874630        0.08721272579725
N            2.31567053267166        0.14910166990354        0.03369241639326
C            2.54459760281637       -1.21512286738045        0.05059557639966
N            1.38562564952458       -2.01257717551411        0.01591903424159
C            0.44580281988168       -1.05603078769889       -0.00819019517107
C            0.93524969702374        0.25782275715153        0.01064993361253
C            0.11382353417060        1.44613046206810       -0.00363735765691
O            0.43893641636497        2.60291456877038        0.00400208385982
N           -1.27223117266056        1.12544743597420       -0.03420833240630
C           -2.25243120639211        2.18958010741804       -0.05200274738669
C           -1.80046071640720       -0.16304563776459       -0.04964779678561
O           -2.98958185820180       -0.37136618020265       -0.07510843253699
N           -0.90728593013913       -1.20202838338677       -0.03735727268616
C           -1.37798023274097       -2.58102834807362       -0.05608004548318
H            3.75067456302318        1.29310199430118        1.05779812032976
H            4.01359813660056        1.13862349046041       -0.68683842620911
H            2.72256083226656        2.18477997350680       -0.07070913261538
H            3.56774584450776       -1.52314962517940        0.04494746965758
H           -1.73051610356950        3.14162087548042       -0.02823702269345
H           -2.86303504485748        2.11630831479651       -0.95347912779365
H           -2.91359112752788        2.09963328082630        0.81161424821022
H           -1.00640261551519       -3.08647335087868        0.83073265566116
H           -0.98031650924097       -3.07153808357891       -0.94080465785609
H           -2.45885161254381       -2.58443864507854       -0.07234204595147
H            0.97621451803006       -4.13089503592312       -0.05148775873619
25
 energy: 20.525323290117 xtb: 6.6.1 (8d0f1dd)
C            3.25427224962044        1.24878901818942        0.08743271521934
N            2.30592163321786        0.15994103652900        0.03903607109617
C            2.52960802284749       -1.16482158586176        0.03775294302767
N            1.43329465505430       -1.91654033594077        0.01197182575766
C            0.45066371413950       -1.00748509361187       -0.00656217587028
C            0.93763443288203        0.29904513479842        0.01113125178950
C            0.10037557990159        1.47241854229386       -0.00501185461615
O            0.43876012564418        2.63048196356243        0.00451095690562
N           -1.26303035441381        1.12552149769589       -0.03381051197453
C           -2.25201699962858        2.18656717515660       -0.05180393635408
C           -1.79351940146473       -0.17163287062015       -0.04927919655010
O           -2.98573190743151       -0.36132643252153       -0.07426268650479
N           -0.89513537128371       -1.20547556997924       -0.03536462485297
C           -1.37234611907655       -2.58372555896618       -0.05599161775271
H            3.74778598027482        1.29501130862755        1.05909947128080
H            4.01416174506388        1.13409608810400       -0.68528542680507
H            2.72661838138853        2.19230558902515       -0.07310703682482
H            3.54254397522662       -1.52517136728541        0.05071178537516
H           -1.73139066495178        3.14029545021308       -0.02802554258077
H           -2.86214049230455        2.11293666369323       -0.95312060557049
H           -2.91283796962879        2.09590910340971        0.81138748520046
H           -1.00420610347761       -3.09676094514994        0.82909798403842
H           -0.97905621408970       -3.08043086583213       -0.93989518895568
H           -2.45607085584320       -2.57557005090799       -0.07195774408445
H            0.93805626330568       -4.41534910587732       -0.05162042819931
25
 energy: 19.906448038607 xtb: 6.6.1 (8d0f1dd)
C            3.26038222203076        1.27244636618529        0.08625124000572
N            2.30755953796888        0.18918719206875        0.04042735981850
C            2.53771117722158       -1.12817471317488        0.03611924595716
N            1.46376455918483       -1.86407247277134        0.00855836768952
C            0.44956189070351       -0.97327262009968       -0.00602130609789
C            0.93790579193606        0.32991662377845        0.01346430656464
C            0.08839852421224        1.48702451227850       -0.00284432372505
O            0.43577331341650        2.65125648356861        0.00363114771672
N           -1.26004777741531        1.12325611606761       -0.03239493119690
C           -2.25317415303588        2.18447552306481       -0.05146516446518
C           -1.78802347015903       -0.17408325278912       -0.04851280997918
O           -2.98372496830888       -0.35267856964823       -0.07381155426734
N           -0.89162163929953       -1.21132683318525       -0.03520819276750
C           -1.37076255232506       -2.58409212226042       -0.05681659487958
H            3.74978588069061        1.30875745561580        1.06134785591816
H            4.02084449108200        1.13981485178307       -0.68382796136818
H            2.73683019565792        2.21510149977621       -0.07812321339744
H            3.54030928293090       -1.52122868751289        0.05293010952189
H           -1.73051162070647        3.13808350898669       -0.02731308357390
H           -2.86148351323158        2.11018331518048       -0.95342090535276
H           -2.91266209365827        2.09277765774079        0.81198897419567
H           -1.01218698655237       -3.10565428587027        0.82908670297447
H           -0.98727060618577       -3.08787606038105       -0.94275767250946
H           -2.45628677544683       -2.56152841309628       -0.07226094952639
H            0.89114359426163       -4.68926428656160       -0.05199273506113
25
 energy: 19.727009770917 xtb: 6.6.1 (8d0f1dd)
C            3.26440843569864        1.28743293611418        0.08769177433851
N            2.30964086167788        0.21145843114747        0.04069347666288
C            2.54904719767826       -1.11174263111591        0.03494225025849
N            1.46587990185824       -1.85245199914295        0.00695616472044
C            0.44761834185784       -0.96026505853231       -0.00594548292258
C            0.93770810244303        0.34128655239741        0.01499213560640
C            0.08410896540147        1.49246332291609       -0.00325764847554
O            0.43516131617023        2.65875697539814        0.00150653989735
N           -1.26059210959177        1.12356010194910       -0.03229315881501
C           -2.25510170028586        2.18497033546252       -0.05147653672595
C           -1.78472065047734       -0.17079124707997       -0.04836935095890
O           -2.98172308871049       -0.35002492758005       -0.07315125427032
N           -0.88948114231025       -1.21380695525127       -0.03553858110579
C           -1.36785559222729       -2.58253824808605       -0.05664274897304
H            3.75240797014455        1.31688589899511        1.06415443629118
H            4.02382648268928        1.14423589833576       -0.68175648425713
H            2.74287571845685        2.22904273269991       -0.07808739750978
H            3.54426673926184       -1.51500673804162        0.04861605461664
H           -1.73028827794607        3.13755096145933       -0.02761559925338
H           -2.86225964294009        2.10973737955815       -0.95365358530988
H           -2.91354085374583        2.09264270174556        0.81224018142614
H           -1.01338414875564       -3.10866793612323        0.82933316456028
H           -0.98873206666700       -3.09096163707082       -0.94287384052312
H           -2.45510453108193       -2.55687938457204       -0.07192935304860
H            0.85804807637390       -4.82785867683854       -0.05150124403475
25
 energy: 19.684356127354 xtb: 6.6.1 (8d0f1dd)
C            3.26428424489755        1.28662087871409        0.08705422373037
N            2.30765675583112        0.21417280504717        0.04080423774110
C            2.55043817721201       -1.10905834043980        0.03499958773824
N            1.46464783424908       -1.84773712507746        0.00629190554938
C            0.44692147800312       -0.95653400708034       -0.00567122019499
C            0.93739303384616        0.34332097931060        0.01621863913501
C            0.08294937326473        1.49413274314014       -0.00255901812367
O            0.43551257077256        2.65981891557341        0.00187356339213
N           -1.26116962795424        1.12353792529723       -0.03186078947943
C           -2.25609697127986        2.18516726765857       -0.05138640090660
C           -1.78396189763319       -0.16889932141011       -0.04834953703249
O           -2.98076639523906       -0.35117801111894       -0.07349469964072
N           -0.88760741181493       -1.21508538617609       -0.03575226325521
C           -1.36597083976417       -2.58182056588742       -0.05692334565219
H            3.75250104119102        1.31600244042040        1.06321481105366
H            4.02337602358635        1.14233233011187       -0.68234765800509
H            2.74378840024630        2.22849787521029       -0.07886670524765
H            3.54159022248315       -1.51874920700312        0.05010136733549
H           -1.73066857267012        3.13735398321530       -0.02733076012692
H           -2.86270624756944        2.10971675394353       -0.95371893927771
H           -2.91441570976508        2.09244422297919        0.81215309427720
H           -1.01174135717043       -3.10884276278809        0.82885308064105
H           -0.98695762977264       -3.09103847568441       -0.94300407783554
H           -2.45377847095832       -2.55642720820160       -0.07225103884945
H            0.85699628098075       -4.83871992101045       -0.05101414477139
25
 energy: 19.670723015598 xtb: 6.6.1 (8d0f1dd)
C            3.26380583529377        1.28617918749580        0.08757967709683
N            2.30612481321659        0.21529311549462        0.04081467805723
C            2.55174819582437       -1.10812324753205        0.03417882379738
N            1.46322236195955       -1.84639167132887        0.00557657240149
C            0.44645325723730       -0.95576310737957       -0.00574994253195
C            0.93737120514820        0.34344909895503        0.01653453446854
C            0.08280457763949        1.49438506254218       -0.00310516641886
O            0.43550529182811        2.65979320797433        0.00122452102458
N           -1.26149497750742        1.12268882424808       -0.03202872255464
C           -2.25606858985549        2.18511769905690       -0.05147269250072
C           -1.78367900493116       -0.16738410260567       -0.04842186056526
O           -2.98019972681343       -0.35268715141345       -0.07328305501879
N           -0.88672792996651       -1.21663450769595       -0.03598226053968
C           -1.36644487369824       -2.58140812130512       -0.05668876983305
H            3.75227375730719        1.31618506575501        1.06360789454358
H            4.02325643889024        1.14289719835265       -0.68155470324835
H            2.74454242625939        2.22904965075970       -0.07806059610936
H            3.54050397185335       -1.52124645560766        0.04897519766459
H           -1.72997716158166        3.13693226065289       -0.02759615983316
H           -2.86266786623171        2.10976247404053       -0.95369564703352
H           -2.91401874360160        2.09260711584910        0.81222608360624
H           -1.01305916355650       -3.10919957027896        0.82908415404205
H           -0.98853427482260       -3.09171576483082       -0.94269857981912
H           -2.45432620702840       -2.55534382098921       -0.07187975350784
H            0.86180069210958       -4.83941365146545       -0.05055031499369
25
 energy: 19.667169261412 xtb: 6.6.1 (8d0f1dd)
C            3.26381657050027        1.28549986673199        0.08712039478494
N            2.30561262283442        0.21502196879793        0.04085977060976
C            2.55147811394132       -1.10843360050101        0.03464618393325
N            1.46202231250375       -1.84622919813023        0.00561114177219
C            0.44592405257022       -0.95562418327363       -0.00559651378555
C            0.93732707990677        0.34361329916063        0.01692438116550
C            0.08298577376595        1.49461690169197       -0.00259071347984
O            0.43521292078040        2.66007976266216        0.00171147718469
N           -1.26173279481944        1.12255973936984       -0.03178785466685
C           -2.25626238782247        2.18527147643192       -0.05139486282313
C           -1.78406736881782       -0.16631774525549       -0.04837861843446
O           -2.98043635545630       -0.35279091779332       -0.07345830660838
N           -0.88702671881538       -1.21667140477759       -0.03607311450707
C           -1.36642619157388       -2.58131922191677       -0.05696810563290
H            3.75240420907157        1.31586183318754        1.06315759506022
H            4.02318210019672        1.14186974132818       -0.68212743066723
H            2.74492406172433        2.22873225012083       -0.07886835968840
H            3.53980791670152       -1.52232746733700        0.04957856866076
H           -1.73029312533975        3.13716460056168       -0.02733955585029
H           -2.86268671068603        2.10994023696109       -0.95373716001945
H           -2.91439973826371        2.09268324683250        0.81215964671263
H           -1.01288071087790       -3.10931713305715        0.82875975956299
H           -0.98814315817179       -3.09160483176571       -0.94301493077596
H           -2.45432677690726       -2.55583874554146       -0.07226958454776
H            0.86619860802694       -4.83741168574494       -0.04988989576510
25
 energy: 19.660359514386 xtb: 6.6.1 (8d0f1dd)
C            3.26365317709249        1.28516929530947        0.08769588741467
N            2.30553791538273        0.21417978435699        0.04080742853402
C            2.55053804526041       -1.10936831534791        0.03412445353981
N            1.46034689171223       -1.84641132014300        0.00502447535020
C            0.44520869009883       -0.95559548648799       -0.00586965490983
C            0.93737050693632        0.34384629776583        0.01653269901456
C            0.08357032474956        1.49462699755573       -0.00313644965481
O            0.43480187066073        2.66033003150716        0.00113722477342
N           -1.26180373842391        1.12230087153441       -0.03209792258775
C           -2.25610310757151        2.18534015706183       -0.05149916310411
C           -1.78468399735880       -0.16538696365341       -0.04843857674212
O           -2.98088804424945       -0.35290697103255       -0.07319822428666
N           -0.88779104841173       -1.21625669753923       -0.03616823117270
C           -1.36674837087297       -2.58112319321599       -0.05663733419974
H            3.75201692714118        1.31543584824261        1.06391386417036
H            4.02313984278024        1.14220711953152       -0.68158095769005
H            2.74443949307388        2.22843197118242       -0.07797803680694
H            3.53921953307417       -1.52296662645445        0.04864088920191
H           -1.73004884937237        3.13717356800828       -0.02762673787995
H           -2.86274772819940        2.10995100353521       -0.95371914983802
H           -2.91403815941798        2.09280972639208        0.81225752062647
H           -1.01294753865432       -3.10891218416491        0.82921440692411
H           -0.98853317172018       -3.09156030926139       -0.94267509394792
H           -2.45450193287483       -2.55566487252897       -0.07177463477894
H            0.87320677413715       -4.83662094340971       -0.04991476975542
25
 energy: 19.660288584829 xtb: 6.6.1 (8d0f1dd)
C            3.26387536645791        1.28536050431106        0.08701612406858
N            2.30598567972470        0.21396404798446        0.04091924691371
C            2.55002634310901       -1.10969628994628        0.03475691216282
N            1.45994234460356       -1.84638118470359        0.00565831335187
C            0.44508581781832       -0.95524294027468       -0.00556704886345
C            0.93738478649303        0.34411890938296        0.01689214863949
C            0.08355913093720        1.49469407253995       -0.00242459528277
O            0.43462972420791        2.66048312913284        0.00187706446401
N           -1.26181629066590        1.12250362852790       -0.03177516719512
C           -2.25618115244449        2.18539042680237       -0.05137453365521
C           -1.78477207772487       -0.16570697714160       -0.04836910841343
O           -2.98101693039658       -0.35271250416352       -0.07349278633737
N           -0.88796770496517       -1.21585454059855       -0.03608758600298
C           -1.36667841910472       -2.58113797425674       -0.05706578087529
H            3.75244759194207        1.31594203165543        1.06304387795822
H            4.02319581079922        1.14190202479929       -0.68230273875760
H            2.74454058942139        2.22835630836849       -0.07903785537026
H            3.53924057950772       -1.52244694311007        0.04951138302593
H           -1.73026918819997        3.13728267300062       -0.02728318828866
H           -2.86259834201019        2.11002037221375       -0.95375000910042
H           -2.91439365916117        2.09275659788539        0.81216320374395
H           -1.01305574308884       -3.10903020733022        0.82865510207877
H           -0.98820253186504       -3.09121631779783       -0.94312597036969
H           -2.45446480855326       -2.55580819246809       -0.07242765304479
H            0.87371738813057       -4.83851186606933       -0.04937544265572
