25
 energy: 0.000000000000 xtb: 6.6.1 (8d0f1dd)
C            3.23720132972391        1.16630909158653        0.08434468864950
N            2.29877796055224        0.07527476373246        0.03981602671198
C            2.58028186251803       -1.21425391179017        0.03006175752192
N            1.43813944744728       -1.93419254010258        0.00098261751768
C            0.39035684826767       -1.05887462812143       -0.00790371763344
C            0.93510047688824        0.21347817468824        0.01709077332874
C            0.09450143016486        1.40504290868848       -0.00410946993748
O            0.49712746915594        2.54126690785742       -0.00342325656480
N           -1.25076628431515        1.06271869620815       -0.03085477937476
C           -2.21907191394203        2.15522079838987       -0.05001256521996
C           -1.81739470187490       -0.20012724136556       -0.04692818139228
O           -2.99983858926755       -0.37846413507442       -0.07008877579474
N           -0.92618577614240       -1.30210203518959       -0.03682761236648
C           -1.46982251276835       -2.64643077634382       -0.06029819901142
H            3.71247229913541        1.21471443890471        1.06488839270555
H            4.00791460421487        1.03430799217987       -0.67357688121503
H            2.69909982127087        2.09770098766290       -0.09130154035862
H            3.56654087521359       -1.63682977417947        0.04233139674524
H           -1.67107945562430        3.09322822573871       -0.02552706696334
H           -2.82428927394145        2.09428605349656       -0.95318074103337
H           -2.87644002486466        2.07745706351925        0.81450059976605
H           -1.17061985538665       -3.19584861009707        0.83242224714061
H           -1.14560246782873       -3.17511580834413       -0.95688266944647
H           -2.55549768731684       -2.55659960601237       -0.07459039105944
H            1.38130842369251       -2.94313824728853       -0.01389874052104
25
 energy: -6.033167852802 xtb: 6.6.1 (8d0f1dd)
C            3.24009048833282        1.17236300631649        0.08631763542395
N            2.30454912026095        0.09425138449677        0.03437036455949
C            2.59417422835697       -1.25608866685682        0.03202888233579
N            1.40995877354579       -1.96566346984755        0.00061724006224
C            0.40139357047455       -1.06678985002174       -0.00846987591676
C            0.92030244980875        0.22177465875367        0.01444547685144
C            0.11651228891942        1.38732106667082       -0.00489748255541
O            0.49367117655899        2.56204002961919       -0.00402626996229
N           -1.26837824534363        1.05438505546361       -0.03126775498003
C           -2.22273992649028        2.15163568562060       -0.04973411291864
C           -1.81549833200271       -0.19252277786574       -0.04736792990786
O           -3.01423793154640       -0.38203028946402       -0.07045634136125
N           -0.93740493674697       -1.29532429181532       -0.03725502008696
C           -1.46469585679383       -2.63874312563828       -0.06022759909976
H            3.71965938775063        1.22305847474869        1.06781738668923
H            4.01131913021062        1.04292081049047       -0.67517508977621
H            2.70110877009965        2.10318426954260       -0.08915580471100
H            3.57330375323051       -1.66176657292831        0.04356227457942
H           -1.66814777315452        3.08764632706488       -0.02550910134388
H           -2.82877223960869        2.09587605020696       -0.95364988759460
H           -2.88038433013293        2.07909560089206        0.81590869857894
H           -1.15651312289659       -3.18863183354337        0.83225441445606
H           -1.13154847856025       -3.16839727595953       -0.95610408035553
H           -2.54959110358955       -2.55566770801647       -0.07466208698552
H            1.32315842020385       -2.98608302290212       -0.01489847441796
25
 energy: -4.786248869177 xtb: 6.6.1 (8d0f1dd)
C            3.23945359892074        1.17196474537413        0.08656417816325
N            2.30613538702257        0.08600197792979        0.03064714505914
C            2.58782909393838       -1.27403841505530        0.03073697538840
N            1.39728172552432       -1.99288130782768        0.00040388636173
C            0.40312678625100       -1.07271395717746       -0.00970770876266
C            0.92124402696667        0.21651788153867        0.01130208076346
C            0.11772700486441        1.38599991309247       -0.00579319266277
O            0.49188969965924        2.56253544878863       -0.00425334430408
N           -1.26935781429599        1.05656554558495       -0.03172584600208
C           -2.22507942266045        2.15276516109654       -0.04958844520076
C           -1.81667249616494       -0.18989223508630       -0.04800135907673
O           -3.01569198922984       -0.38064885872162       -0.07080254366173
N           -0.93728960577649       -1.29029010730061       -0.03773632942054
C           -1.45806712441907       -2.63526768020234       -0.06011189441402
H            3.72089923363789        1.22632149876258        1.06746495604059
H            4.01169998330192        1.04948619446994       -0.67528809503481
H            2.70113886301346        2.10526193513174       -0.08658344046571
H            3.57072761111815       -1.67004785696762        0.04800687809228
H           -1.67057676285454        3.08859533316800       -0.02541867992454
H           -2.83172442120627        2.09718627093980       -0.95330354104776
H           -2.88270838657605        2.08012983444238        0.81628600024901
H           -1.14377926682600       -3.18135446637629        0.83270696967795
H           -1.11903193281027       -3.16164869292036       -0.95583895305379
H           -2.54265094064603       -2.55774005120716       -0.07451983795718
H            1.26814925787650       -3.02896756108116       -0.01428970226466
25
 energy: -2.285902510990 xtb: 6.6.1 (8d0f1dd)
C            3.23903113175702        1.17299555170367        0.08671962240482
N            2.30736358310666        0.08047805371757        0.03000910476219
C            2.58198089028446       -1.28910304014221        0.03053409350232
N            1.38526594978709       -2.01861467366431        0.00005806718551
C            0.40529644568187       -1.07779637120733       -0.00991650695810
C            0.92338166325395        0.21355518182190        0.01137139538828
C            0.11926254946920        1.38697180221696       -0.00450446443039
O            0.49230124769213        2.56400184491188       -0.00238957892391
N           -1.26943042629505        1.06027813858632       -0.03136350601120
C           -2.22754923967719        2.15475998137532       -0.05006885843394
C           -1.81666352786226       -0.18636892105933       -0.04812551119059
O           -3.01586827127811       -0.37795508889511       -0.07179974718561
N           -0.93664376733837       -1.28498672218506       -0.03757186214553
C           -1.45207653140554       -2.63179225658921       -0.05997061244385
H            3.72331175073543        1.23016900262479        1.06638649273421
H            4.01058823359249        1.05688094697727       -0.67718674424152
H            2.69962737078862        2.10778005324346       -0.08294669114471
H            3.57314282173944       -1.66419153995862        0.04802072807447
H           -1.67605698323371        3.09221162650163       -0.02570049277597
H           -2.83389182958679        2.09796264844992       -0.95401225641257
H           -2.88629226376319        2.08112873755632        0.81500415934240
H           -1.13301225799757       -3.17553030787586        0.83279013357890
H           -1.10799569671508       -3.15568601710666       -0.95541267789948
H           -2.53636719874188       -2.55947639383924       -0.07459383002974
H            1.21747740965622       -3.07470135133919       -0.01448241993942
25
 energy: 1.601032143512 xtb: 6.6.1 (8d0f1dd)
C            3.23951620505526        1.17562965654297        0.08727593173829
N            2.30884675959487        0.07680360904423        0.03058805882178
C            2.57630192318237       -1.30269517582324        0.03248159790715
N            1.37524540713668       -2.04512246984422       -0.00080630800782
C            0.40847930317439       -1.08283435315290       -0.00984124906590
C            0.92562619331553        0.21144082815446        0.01131043440505
C            0.12039387914135        1.38922733844043       -0.00433348563653
O            0.49292121646188        2.56610122866206       -0.00218137967734
N           -1.26911429115262        1.06480900624096       -0.03153466084532
C           -2.23058007488871        2.15689040638437       -0.05007517444050
C           -1.81525824778998       -0.18250718493963       -0.04856178177525
O           -3.01457171078402       -0.37423266134820       -0.07381897420216
N           -0.93520697448457       -1.27983638749857       -0.03740941841877
C           -1.44614080831232       -2.62861377053100       -0.05948082203976
H            3.72664275795193        1.23664293419255        1.06557497196693
H            4.01066204862364        1.06489630164503       -0.67812434287049
H            2.70083879512687        2.11268966922961       -0.07869985904144
H            3.57463919385886       -1.65921827202157        0.04847637634450
H           -1.68439883952293        3.09735785971658       -0.02589038301942
H           -2.83768292442358        2.09779841444038       -0.95337331560671
H           -2.88944411640298        2.08083894725493        0.81472977670675
H           -1.12393287781023       -3.17121945291810        0.83311802114375
H           -1.09793665825441       -3.15172984935620       -0.95401697240171
H           -2.52991786387208       -2.56041460253362       -0.07472603815355
H            1.19332406905308       -3.13120401956422       -0.01911817948167
25
 energy: 23.600480051601 xtb: 6.6.1 (8d0f1dd)
C            3.24431300700385        1.19356417313982        0.08526723769149
N            2.30637358347278        0.09564553751129        0.03297674991979
C            2.54797880835565       -1.24540593780199        0.03789089837367
N            1.41742481203752       -1.95279004326677        0.01520499345945
C            0.41768536810587       -1.04959094977529       -0.01066249240946
C            0.93426286462720        0.24418751620765        0.00998729233243
C            0.10500796898229        1.41557018312892       -0.00654258409886
O            0.47586927288240        2.57852648358361       -0.00578183571009
N           -1.26100713874019        1.07707463440498       -0.03271436681617
C           -2.23164135322210        2.16199183822169       -0.04706114672079
C           -1.80746788685230       -0.19255854020275       -0.05052809312082
O           -3.00524859520011       -0.36992009147125       -0.07697079543478
N           -0.92424383014890       -1.26770757475118       -0.03941429127723
C           -1.43545076201540       -2.62246716378201       -0.06278418762850
H            3.72746641362655        1.24282299489210        1.06341021242464
H            4.00999603521446        1.06686721602806       -0.67932961803674
H            2.70710191292252        2.12963101399889       -0.07854065762309
H            3.55293820443933       -1.62685461366735        0.05026489473773
H           -1.68469433462931        3.10143949480971       -0.02257230475853
H           -2.84128421393280        2.10380640969769       -0.94844086363394
H           -2.88707322809090        2.08338773955280        0.81988193125314
H           -1.10108428139988       -3.16200387059766        0.82485408759228
H           -1.07581026061373       -3.14064715953617       -0.95392466104668
H           -2.51932381458517       -2.56309001534974       -0.07748660399475
H            1.10529516083256       -3.57970297411449       -0.02449432707609
25
 energy: 20.827826726937 xtb: 6.6.1 (8d0f1dd)
C            3.24509743513216        1.20032537929065        0.08681080946565
N            2.30754171180702        0.09950855796095        0.03569136035860
C            2.54252873850974       -1.23974041806409        0.03886763982938
N            1.42038989162599       -1.95764598484080        0.00571857789010
C            0.42276521658174       -1.04632881670008       -0.00909602466150
C            0.93738167666673        0.24738060740010        0.01080574955711
C            0.10236487102869        1.42073774251133       -0.00419063956968
O            0.47410125681021        2.57968836687587        0.00154282764452
N           -1.25793430940650        1.08319270666169       -0.03188783520468
C           -2.23381500271092        2.16425032966313       -0.05005015824104
C           -1.80401670814857       -0.19181068091999       -0.04954201546114
O           -3.00134946489262       -0.36650301363442       -0.07558596481015
N           -0.92048358905791       -1.26155542626336       -0.03797561747365
C           -1.43085766767583       -2.61833948719270       -0.05927616579797
H            3.73054994335762        1.25023025519219        1.06348248218596
H            4.01013629505133        1.08127041580966       -0.68031072748199
H            2.70508648461903        2.13579642771689       -0.07391108444369
H            3.55231738446077       -1.61545116649617        0.04748154388939
H           -1.69267630054472        3.10709737941001       -0.02569671893311
H           -2.84103082029010        2.10127743704162       -0.95278158625873
H           -2.89248664315526        2.08374199532460        0.81435443363346
H           -1.09231122041827       -3.15513004211931        0.82818177336864
H           -1.06730301695658       -3.13624102587077       -0.94814906305082
H           -2.51459917505016       -2.56417684963938       -0.07421290473212
H            1.07962560381802       -3.69218086132861       -0.03619828772065
25
 energy: 19.476609414109 xtb: 6.6.1 (8d0f1dd)
C            3.24642604687379        1.20706983079757        0.08537113064733
N            2.30704586455674        0.10728502035926        0.03514352326490
C            2.54019894789343       -1.23120656127226        0.04232876111254
N            1.42165612349162       -1.95615836203803        0.01376226184831
C            0.42550590453497       -1.04100856500564       -0.00759101867392
C            0.93737073685058        0.25420263859305        0.01075684344524
C            0.10024241751392        1.42587835463819       -0.00243210562995
O            0.46811204629752        2.58534335391457        0.00578672546255
N           -1.25943609194077        1.08764359328909       -0.03139625535285
C           -2.23665181464903        2.16739141446386       -0.05077094671659
C           -1.80296509841468       -0.18802360836992       -0.04966552532166
O           -2.99954083475918       -0.36687795508729       -0.07500981489886
N           -0.91792257708795       -1.25551856893836       -0.03812924187321
C           -1.42288408922244       -2.61406543382067       -0.05912610740282
H            3.73265979015888        1.25548407439272        1.06171665027123
H            4.01083229684576        1.08886156599555       -0.68257541478643
H            2.70762564182132        2.14357692906069       -0.07488069170676
H            3.55189494561105       -1.60322087025077        0.05054173484641
H           -1.69660816010167        3.11097780322546       -0.02626827458757
H           -2.84264624904153        2.10300237846341       -0.95423457883401
H           -2.89710729958007        2.08656326141839        0.81232958429524
H           -1.07849412658898       -3.14800518488302        0.82787914901716
H           -1.05676905137126       -3.12965317213903       -0.94843848447205
H           -2.50688149991562       -2.56649004525876       -0.07241416082961
H            1.05987097615970       -3.78086936510599       -0.04276573715593
25
 energy: 18.715936999957 xtb: 6.6.1 (8d0f1dd)
C            3.24836447579828        1.21609079882121        0.08580982518558
N            2.30617139141422        0.11878812043661        0.03572771739291
C            2.53869546035366       -1.21899999177857        0.04419865448060
N            1.42349108527204       -1.94862552686143        0.01447953633331
C            0.42752305431566       -1.03266240799926       -0.00767923637684
C            0.93680419676054        0.26355920344991        0.01014136764446
C            0.09729538942994        1.43252646782969       -0.00318670182673
O            0.46047357474873        2.59295532813888        0.00533036273913
N           -1.26140647116280        1.09201971693658       -0.03179732623740
C           -2.23938059496944        2.17063265463836       -0.05101047529538
C           -1.80255486585767       -0.18448956659353       -0.04963052915155
O           -2.99828668209675       -0.36697138900983       -0.07472433337751
N           -0.91562652073996       -1.24932971976598       -0.03834276791825
C           -1.41460867282794       -2.61020249094487       -0.05849212399400
H            3.73655412618113        1.26194029222843        1.06127469387986
H            4.01171771829869        1.09661179498106       -0.68289169454176
H            2.71358014316754        2.15512120788914       -0.07351195708888
H            3.55140864967584       -1.58895501828476        0.04960020692216
H           -1.69962715436018        3.11457233615459       -0.02683680999078
H           -2.84571187732946        2.10521008169588       -0.95420134792371
H           -2.89964816813233        2.08910964372159        0.81221818394949
H           -1.06645593359367       -3.14171011011806        0.82866587865568
H           -1.04519191742919       -3.12370565466346       -0.94780295427777
H           -2.49892391697811       -2.56943718847426       -0.07149563003383
H            1.03658598405574       -3.88308695367655       -0.04403170789514
25
 energy: 18.461686924540 xtb: 6.6.1 (8d0f1dd)
C            3.24919326540865        1.22429335178902        0.08586604388774
N            2.30448909898258        0.12976248380200        0.03754317759452
C            2.53782677397697       -1.20637942674715        0.04409046745546
N            1.42702463512976       -1.93888474540038        0.01692210500946
C            0.42978697917806       -1.02359762420127       -0.00631441220830
C            0.93599580239808        0.27321501460120        0.01052394663685
C            0.09457472332048        1.43972716727948       -0.00440603619180
O            0.45366299314855        2.60110892205773        0.00366126226503
N           -1.26257965411166        1.09672823787379       -0.03264718090555
C           -2.24188471985758        2.17373082977654       -0.05041072516512
C           -1.80038881861164       -0.18126843796586       -0.05040980159390
O           -2.99580872803655       -0.36598942325930       -0.07579372092318
N           -0.91262967740631       -1.24320244551601       -0.03838502974230
C           -1.40550541078462       -2.60612744585870       -0.05886717259359
H            3.74088399517219        1.26651341975088        1.05962713880400
H            4.00974032974261        1.10363114355583       -0.68547451916930
H            2.71630238801173        2.16452900307097       -0.07172189611614
H            3.55125046604469       -1.57541607201296        0.04703702252022
H           -1.70271264971051        3.11811182007569       -0.02604411304222
H           -2.84911477102938        2.10766044221757       -0.95297469395997
H           -2.90119258903336        2.09042857153503        0.81344354792177
H           -1.05481433573114       -3.13437156225539        0.82934527886767
H           -1.03004900159427       -3.11638253261965       -0.94762260790997
H           -2.49032203321722       -2.57340231736886       -0.07411930257530
H            1.01338768374703       -3.99038223717320       -0.04306331736314
25
 energy: 18.563576928455 xtb: 6.6.1 (8d0f1dd)
C            3.24942595945973        1.23406428616001        0.08651355093842
N            2.30285394353995        0.14198374238453        0.03967517232226
C            2.53767658029256       -1.19229259517955        0.04419249735108
N            1.43114168450441       -1.92722168743097        0.01554924355511
C            0.43208266663888       -1.01365118320388       -0.00610395469469
C            0.93518483079571        0.28353798635354        0.01106469071657
C            0.09222797128850        1.44771969640692       -0.00463628802022
O            0.44905722091513        2.60979737603711        0.00379009152999
N           -1.26339066003016        1.10170234770750       -0.03293670129695
C           -2.24402792823693        2.17704457422629       -0.05102541818051
C           -1.79823647419611       -0.17821925343742       -0.04999094930299
O           -2.99363285803305       -0.36434562427010       -0.07507476436825
N           -0.90961465081811       -1.23711011387025       -0.03805202184005
C           -1.39678509922737       -2.60212667713805       -0.05767613622018
H            3.74289989581354        1.27479808248739        1.05939621226385
H            4.00871223006444        1.11274351036395       -0.68619473756212
H            2.71857277185889        2.17498242939935       -0.07063493439897
H            3.55133402281484       -1.56031339425987        0.04728594622492
H           -1.70644028396996        3.12213583494956       -0.02686972779400
H           -2.85108432671253        2.10985907264770       -0.95355665890424
H           -2.90327939305934        2.09327083112003        0.81276827697480
H           -1.04232734552292       -3.12687902923610        0.83121124415432
H           -1.01709612816913       -3.10991210863007       -0.94612571630522
H           -2.48214410742426       -2.57685001262473       -0.07331009593687
H            0.98881155148891       -4.11188198840559       -0.04908235405333
25
 energy: 18.789581061142 xtb: 6.6.1 (8d0f1dd)
C            3.25179747503457        1.24300536482013        0.08612229371076
N            2.30281126594584        0.15487881717376        0.04010773305716
C            2.53772135095546       -1.17763743200062        0.04198776723785
N            1.43496023903884       -1.91417912034895        0.01378892729126
C            0.43417882933592       -1.00262943753969       -0.00579352583695
C            0.93507932422907        0.29459446975125        0.01183371857806
C            0.09063441579249        1.45662302449905       -0.00452849608323
O            0.44786088096964        2.61883923387183        0.00397222151099
N           -1.26404254641650        1.10750841699018       -0.03309778429856
C           -2.24696405588032        2.18037888059951       -0.05153537317815
C           -1.79669907343355       -0.17452588470863       -0.04962600596578
O           -2.99226204440768       -0.36089413292116       -0.07444140901324
N           -0.90706986733079       -1.22997127116206       -0.03769191426146
C           -1.39005452914775       -2.59658806273129       -0.05703291243627
H            3.74700197304355        1.28230388799599        1.05832280274984
H            4.01023897631460        1.12024562021490       -0.68759048119341
H            2.72227323810629        2.18363777560894       -0.07197599059124
H            3.55076636733949       -1.54539935771962        0.04785369958909
H           -1.71205740181625        3.12676957047629       -0.02755268824887
H           -2.85381751364276        2.11190196410044       -0.95398081489197
H           -2.90598019241656        2.09584859962161        0.81222982189401
H           -1.03308290867074       -3.11762955239782        0.83273227186042
H           -1.00676693563973       -3.10186221697838       -0.94515835398929
H           -2.47498071851803       -2.57946956455724       -0.07327153411333
H            0.96975995119307       -4.22913614675196       -0.05200354433930
25
 energy: 19.044797589641 xtb: 6.6.1 (8d0f1dd)
C            3.25404426299872        1.25275667807154        0.08564118564928
N            2.30322746715243        0.16811871218589        0.03961758499104
C            2.53849059284115       -1.16266520758300        0.03822952436772
N            1.43954350603524       -1.90012231845664        0.01170217498384
C            0.43660332397124       -0.99132336294701       -0.00590004904672
C            0.93535234139043        0.30584918427906        0.01219849225012
C            0.08899773582461        1.46568302509790       -0.00451082994730
O            0.44624665373923        2.62832415562574        0.00417117413808
N           -1.26422126915095        1.11335254009035       -0.03334198172671
C           -2.24951443701039        2.18364748790959       -0.05156315299536
C           -1.79490074839605       -0.17123297058906       -0.04949547979865
O           -2.99064322757929       -0.35729611282795       -0.07407844029772
N           -0.90379731185331       -1.22257074709434       -0.03736210311366
C           -1.38398626162551       -2.58962999498044       -0.05691936247041
H            3.74792990252349        1.29037965075223        1.05853798395988
H            4.01210083571930        1.12818697561627       -0.68811356084956
H            2.72596363893559        2.19328915466017       -0.07430295468470
H            3.54908395412297       -1.53521735798015        0.04676308331953
H           -1.71676095198276        3.13103726234099       -0.02760960018670
H           -2.85628392216926        2.11405634159874       -0.95398313730543
H           -2.90837955211665        2.09766957894754        0.81230012769553
H           -1.02665131794657       -3.10720494592034        0.83348938685806
H           -0.99988111074629       -3.09201792922012       -0.94518278767929
H           -2.46825608101241       -2.57824764928647       -0.07322638994680
H            0.95224922476721       -4.35426541661523       -0.05110136883821
25
 energy: 19.245814248956 xtb: 6.6.1 (8d0f1dd)
C            3.25657500113312        1.26218671835568        0.08579520541451
N            2.30399197163156        0.18104562813146        0.03946935497785
C            2.53986718025872       -1.14787772449848        0.03683727088268
N            1.44435772342500       -1.88563334644261        0.01042898423208
C            0.43901613315516       -0.98025532315156       -0.00579237097761
C            0.93574444184779        0.31694215847129        0.01286537865913
C            0.08716877394091        1.47438898154211       -0.00399934982338
O            0.44371564853950        2.63769456246637        0.00424715544187
N           -1.26428863374554        1.11808674759206       -0.03350903067238
C           -2.25223050444948        2.18629559318102       -0.05187424476346
C           -1.79265030943337       -0.16873299394464       -0.04921520719903
O           -2.98871337166954       -0.35446708822243       -0.07389924189677
N           -0.89989726540356       -1.21699521080720       -0.03667707093130
C           -1.37815431212697       -2.58349852072167       -0.05649057976160
H            3.74788522772450        1.29674833003756        1.06006392317182
H            4.01371488979188        1.13498756375071       -0.68779520880593
H            2.73044856533630        2.20302975032120       -0.07607599583912
H            3.54434652201352       -1.53218383004711        0.04791582488729
H           -1.72161421150328        3.13482106587545       -0.02775000718182
H           -2.85926106547116        2.11498499139626       -0.95424044932542
H           -2.91140967434538        2.09778937065535        0.81174209641505
H           -1.01733350312182       -3.09833848076707        0.83305615405420
H           -0.99080250344437       -3.08350621839458       -0.94374751208820
H           -2.46298931900996       -2.57272495875785       -0.07263834782139
H            0.93161644422670       -4.47949351789072       -0.05147920028139
25
 energy: 19.416185910054 xtb: 6.6.1 (8d0f1dd)
C            3.25944220432131        1.27174627114573        0.08614770666788
N            2.30512615379963        0.19391364142281        0.04007565840275
C            2.54276135990616       -1.13271025824348        0.03669299323336
N            1.45092747439795       -1.87127520920469        0.00946729729451
C            0.44206286847610       -0.97032332486581       -0.00582485219858
C            0.93654084622518        0.32714393197906        0.01366213337535
C            0.08586124563848        1.48194138158467       -0.00343320849700
O            0.44053262014847        2.64625350013073        0.00387119849402
N           -1.26273782610743        1.12043155086989       -0.03361512917368
C           -2.25275985137136        2.18682085159912       -0.05197138601420
C           -1.78944556412028       -0.16736362383394       -0.04879061385448
O           -2.98600813689220       -0.35220901310513       -0.07352528281316
N           -0.89504705833601       -1.21371504126029       -0.03575280884594
C           -1.37289012576943       -2.57879297772928       -0.05601422315528
H            3.74971679717390        1.30539938345516        1.06101173963019
H            4.01658934918635        1.13544249075829       -0.68593829324194
H            2.73546287868472        2.21332063601087       -0.07710265036707
H            3.53920984180067       -1.53000452463145        0.05174435162885
H           -1.72521944384314        3.13757835315606       -0.02784785481291
H           -2.86034466975545        2.11403410815612       -0.95394057443351
H           -2.91091040506731        2.09538188243206        0.81187990082222
H           -1.00819767522884       -3.09275390694005        0.83178182191523
H           -0.98204389696080       -3.07730412836691       -0.94183489500468
H           -2.45914527035889       -2.56601183856948       -0.07234901356971
H            0.90935682787971       -4.60550220234071       -0.05155004935129
25
 energy: 19.551643330700 xtb: 6.6.1 (8d0f1dd)
C            3.26194171749880        1.28245533155111        0.08717995431150
N            2.30690772538592        0.20625047064423        0.04007055722032
C            2.54863552347434       -1.11821919848355        0.03568196831241
N            1.45934046576793       -1.85744356913934        0.00824936878168
C            0.44550946947005       -0.96222097081967       -0.00585678973662
C            0.93768863758198        0.33604091638930        0.01444030098080
C            0.08564076870991        1.48870719422413       -0.00337339810773
O            0.43852757279051        2.65397312274350        0.00305551424796
N           -1.26012457900034        1.12121372091906       -0.03306834074559
C           -2.25364431356249        2.18452886184600       -0.05152138898430
C           -1.78539324434137       -0.16697224814871       -0.04858647727488
O           -2.98238561862226       -0.35016091926343       -0.07291398786547
N           -0.89017998281471       -1.21534702554585       -0.03570466253521
C           -1.36848910335886       -2.58088236188426       -0.05639666019256
H            3.75089722233086        1.31455097230803        1.06302261115334
H            4.02101937236694        1.14388984604423       -0.68331910014908
H            2.73901260987438        2.22440222332903       -0.07686701985399
H            3.54252442216089       -1.51973617842840        0.05033373617728
H           -1.72987260491655        3.13754734955297       -0.02753884950355
H           -2.86032574610259        2.11023591887127       -0.95368198281235
H           -2.91132285661103        2.09155580163623        0.81230425713828
H           -1.00803992710239       -3.10197099871738        0.82993388059014
H           -0.98325864723871       -3.08543423042311       -0.94211698011947
H           -2.45607833134334       -2.55923083012571       -0.07221988219067
H            0.88183516563306       -4.72996838633837       -0.05144164415387
25
 energy: 19.660288584829 xtb: 6.6.1 (8d0f1dd)
C            3.26387536645791        1.28536050431106        0.08701612406858
N            2.30598567972470        0.21396404798446        0.04091924691371
C            2.55002634310901       -1.10969628994628        0.03475691216282
N            1.45994234460356       -1.84638118470359        0.00565831335187
C            0.44508581781832       -0.95524294027468       -0.00556704886345
C            0.93738478649303        0.34411890938296        0.01689214863949
C            0.08355913093720        1.49469407253995       -0.00242459528277
O            0.43462972420791        2.66048312913284        0.00187706446401
N           -1.26181629066590        1.12250362852790       -0.03177516719512
C           -2.25618115244449        2.18539042680237       -0.05137453365521
C           -1.78477207772487       -0.16570697714160       -0.04836910841343
O           -2.98101693039658       -0.35271250416352       -0.07349278633737
N           -0.88796770496517       -1.21585454059855       -0.03608758600298
C           -1.36667841910472       -2.58113797425674       -0.05706578087529
H            3.75244759194207        1.31594203165543        1.06304387795822
H            4.02319581079922        1.14190202479929       -0.68230273875760
H            2.74454058942139        2.22835630836849       -0.07903785537026
H            3.53924057950772       -1.52244694311007        0.04951138302593
H           -1.73026918819997        3.13728267300062       -0.02728318828866
H           -2.86259834201019        2.11002037221375       -0.95375000910042
H           -2.91439365916117        2.09275659788539        0.81216320374395
H           -1.01305574308884       -3.10903020733022        0.82865510207877
H           -0.98820253186504       -3.09121631779783       -0.94312597036969
H           -2.45446480855326       -2.55580819246809       -0.07242765304479
H            0.87371738813057       -4.83851186606933       -0.04937544265572
