  25
        -42.04569512
 C          4.7138058060       -0.9919114127        0.6086194122
 N          3.5885719240       -1.2473987307        0.1436859679
 C          2.3304644814       -1.5308218098        0.2359111839
 N          1.3379254295       -0.6909560494        0.0620369037
 C          1.4662500090        0.6950683380       -0.0588925332
 C          0.3909626699        1.4441116753       -0.2250707414
 C         -0.9550971347        1.7878555513       -0.3586202775
 O          0.0555863613        2.7708292742       -0.3628169708
 N         -2.1494299700        1.5460243538       -0.4469867718
 C         -3.1860239432        2.5223139984       -0.5925161710
 C         -1.9904759818       -1.2776672076        0.7521480337
 O         -2.4652274814       -0.7871635327        1.6784109695
 N         -1.2721510817       -1.6964816863       -0.1155110697
 C         -1.3791525930       -2.5020667617       -1.2971922903
 H          4.8943131425       -0.8342746171        1.6703480228
 H          5.5579517093       -0.9200374712       -0.0679506776
 H          2.4720232400        1.0840770938       -0.0206016581
 H          2.0822351294       -2.5863971618        0.3078344048
 H         -2.8197916557        3.5488484435       -0.6543136069
 H         -3.7503127753        2.2687917266       -1.4896346978
 H         -3.8523125952        2.4128954592        0.2633267946
 H         -1.0250568198       -3.5114669788       -1.0805097156
 H         -0.7531879048       -2.0601450575       -2.0720951294
 H         -2.4055250756       -2.5558747685       -1.6566829003
 H          0.3637734594       -1.0572450021        0.0241306422
