25
 energy: 87.893841258617 xtb: 6.6.1 (8d0f1dd)
C            3.07995274265791        1.39519380651350        0.03629002881298
N            2.37019018482810        0.17238808459097       -0.04429389406043
C            2.92651637983999       -1.09219767471200       -0.16499806343273
N            1.61678568303617       -1.94571422523874       -0.07005317922816
C            0.50042336855202       -1.14747768413880       -0.00314499607774
C            0.97563938269027        0.14340498972055        0.05483829241386
C            0.10911299435092        1.28264957655288        0.09565076750882
O            0.48066022893725        2.44766103818701        0.14093454872270
N           -1.25996543745444        0.99312926089904        0.02565799702271
C           -2.21033202743794        2.11601239523674        0.05631275869713
C           -1.79161479591028       -0.25484353181850       -0.02649003565450
O           -2.99376127798574       -0.43158200661475       -0.08747342874076
N           -0.88451323425194       -1.35924524455703       -0.02443858480488
C           -1.57767336518795       -2.63193276592114       -0.08857188625774
H            3.07147961913589        1.88971729221697        1.02992606797466
H            4.77502436381644        0.53378225640933        0.37864258034981
H            2.90739080588804        2.08803535004501       -0.77557028487892
H            3.96823648059456       -1.40679396023443       -0.11209506220420
H           -1.59763642381266        3.01256710334075        0.10582180127207
H           -2.82601801516386        2.16498016623053       -0.84946810348386
H           -2.88506346095868        2.03790500455599        0.91435813644491
H           -1.34340693294476       -3.25002342497952        0.77369028415803
H           -1.33383091019131       -3.16157234125324       -1.00999081229096
H           -2.65489476426613       -2.41402459009339       -0.06199803626106
H            1.41399440102412       -2.94736522090660       -0.04663211425260
