25
 energy: 135.711399754682 xtb: 6.6.1 (8d0f1dd)
C            2.11788610322559        1.83145221173776       -0.00837849230062
N            2.12263651308192        0.44667252036373        0.04399250863812
C            5.07365366564344       -0.73945118010177       -0.23676732049670
N            1.12974350828509       -2.24264668609955       -0.01446676712843
C            0.32623627864712       -1.27059971893768        0.00100913994843
C            0.86858761826449        0.06107469750095        0.04935883920099
C           -0.02562518779507        1.14779266005032        0.05380255387935
O            0.67112369354007        2.30553521716732        0.05382741683946
N           -1.37100220313338        1.03234974496721        0.05544755500440
C           -2.28298155712237        2.18070243616569        0.09793505402843
C           -1.94845389446716       -0.24030758553984       -0.01401282759375
O           -3.15668614531199       -0.34452801723373       -0.04721996181793
N           -1.08997123637334       -1.31789069176255       -0.03963167658582
C           -1.71588813528699       -2.63082444387837       -0.10990643131947
H            2.41320540053583        2.33927030120090        0.85736234703965
H            6.24227536528909       -0.79095559557940       -0.18733890143195
H            2.67920327251515        2.26407151367124       -0.87868146947901
H            4.80299628208095       -1.80214310902010       -0.08633245648740
H           -1.68287958101907        3.08052534543773        0.17028261108536
H           -2.90152622082689        2.19429333381242       -0.79871543071326
H           -2.93960437532353        2.08980984873955        0.96684554818347
H           -1.47859005061023       -3.23607359256345        0.76849063791539
H           -1.41142339354978       -3.16700022501903       -1.01294780966623
H           -2.78787938651770       -2.47220249300146       -0.13567369865489
H            0.73652902820334       -3.16947294429117       -0.05759397636506
