  72
        -99.31956968
 N         -1.7395748871        2.7705170354        2.5018579683
 C         -1.7386145581        2.1222484369        1.4340038737
 C         -2.9050746442        2.0251655926        0.4902289181
 C         -3.3991881137        0.5874562242        0.4437641321
 C         -4.3353095688        0.2064343515       -0.5199920113
 C         -4.8324429490       -1.0845165476       -0.5758786151
 O         -5.7443108835       -1.5306798228       -1.4666825820
 C         -6.3390994976       -0.6169242665       -2.3574288769
 C         -4.3755127088       -2.0513359886        0.3587763471
 O         -4.9086105834       -3.2843366582        0.2275843097
 C         -4.5774480516       -4.2749510665        1.1720207802
 C         -3.4473957644       -1.6671932500        1.3125801715
 C         -2.9689808740       -0.3632666256        1.3552873546
 C         -2.3603885826        2.4492275244       -0.8994550210
 C         -1.4771209599        1.3948287748       -1.5895378692
 C         -0.1437349420        1.2363669363       -0.9680057293
 N          0.4605254758        0.0752175836       -0.7326642737
 C          1.8502684713        0.0461491797       -0.3422800625
 C          2.7782198723       -0.1482306306       -1.5558647264
 C          4.2104128089       -0.1925186713       -1.0969619140
 C          4.8681012133        1.0082490751       -0.7846724874
 C          6.2193115152        1.0133380107       -0.4284902175
 C          6.9124296397       -0.1600403188       -0.2945947774
 O          8.2274700035       -0.3044161212       -0.0332882772
 C          9.0278062982        0.8483081740        0.1169478549
 C          6.2210987115       -1.4825645223       -0.3977133925
 O          6.0100823632       -1.9797102487        1.0003368561
 C          6.4060360864       -3.1751868347        1.3208282190
 C          4.8666276555       -1.3858841248       -0.9853371003
 C         -0.1974775232       -1.1886505369       -0.9611440322
 C         -4.1022520478        2.9377778122        0.8884561418
 C         -4.7146809099        2.5068765592        2.2191012366
 C         -3.7371373140        4.4186475606        0.9443845601
 H         -4.6911613682        0.9366241075       -1.2276997904
 H         -6.8422993529        0.1945399044       -1.8230042001
 H         -7.0760084837       -1.1912743756       -2.9153642713
 H         -5.6063184843       -0.1979280979       -3.0550050125
 H         -4.8480428697       -3.9680524439        2.1867029326
 H         -5.1597289323       -5.1508368360        0.8928201572
 H         -3.5116332683       -4.5232041087        1.1373948827
 H         -3.0958904856       -2.3744362783        2.0461845596
 H         -2.2717671718       -0.0949876533        2.1338309802
 H         -3.2041216654        2.6624551547       -1.5549297882
 H         -1.7905262116        3.3722413622       -0.7856907095
 H         -2.0109110017        0.4474847152       -1.6378674740
 H         -1.3196226923        1.7425460355       -2.6192794746
 H         -0.8552920248        1.5818487530        1.0414991072
 H          0.4492400794        2.1271427983       -0.8233654284
 H          2.0079911883       -0.7701121367        0.3667249300
 H          2.1061115892        0.9837388669        0.1557409462
 H          2.6299010414        0.6804584416       -2.2508716805
 H          2.5222258213       -1.0773987507       -2.0656930876
 H          4.3462909629        1.9475722630       -0.8749281431
 H          6.7141024045        1.9612537590       -0.2886998928
 H          8.7010090948        1.4472621108        0.9712621571
 H          9.0106508733        1.4613588191       -0.7883256440
 H         10.0385666300        0.4852148083        0.2920423021
 H          6.8645888870       -2.2285225299       -0.8782968892
 H          6.0556011344       -3.5589222841        2.2629745947
 H          7.0642966218       -3.7511042146        0.6898132662
 H          4.3826988862       -2.3159325477       -1.2382281392
 H         -0.4105103487       -1.3393539495       -2.0216946499
 H         -1.1369209033       -1.2349999530       -0.4044293291
 H          0.4474674426       -1.9943749652       -0.6203751565
 H         -4.8632490965        2.8060691175        0.1106196033
 H         -3.9969284190        2.6452162901        3.0210553067
 H         -5.0184080830        1.4631913825        2.1921365251
 H         -5.5916989609        3.1131739254        2.4297285175
 H         -2.9593576638        4.5868793786        1.6825740800
 H         -3.4040962825        4.7918381092       -0.0204453020
 H         -4.6136748056        4.9904801925        1.2374955257
 H         -0.8822500853        2.7872780638        3.0456281743
