25
 energy: 154.401021988210 xtb: 6.6.1 (8d0f1dd)
C            3.01770578954255        1.45103179084057        0.18469586426891
N            2.10405406879008        0.60809608626802        0.42340405557703
C            4.35768875764823       -1.22436143508992       -0.40941013277267
N            1.33234412368286       -1.76533226828608        0.11884927229165
C            0.38040178859923       -0.92867123267210        0.11988473930583
C            0.81571988113944        0.43644060103861        0.19662868041776
C           -0.24076458306488        1.58349873223657        0.14579386289690
O            0.08682884579772        2.74366451002754        0.23389551242110
N           -1.55529936311903        1.15847989825172        0.06017556045721
C           -2.66258602518317        2.11826316063077       -0.03498954688743
C           -1.96243560022178       -0.17734037533407       -0.00129326438628
O           -3.13428402279843       -0.44815315717227       -0.11305036005993
N           -0.99369413503630       -1.14938886103896        0.03856213168311
C           -1.50156332244729       -2.51176713060015       -0.08203573224935
H            3.63317742782678        1.81024830337203        1.00587713860111
H            5.38039931662818       -0.70058266988839       -0.12601983431608
H            3.28899447631087        1.87188791240818       -0.78267465382830
H            4.50921116613160       -2.27935682566449       -0.72576585055097
H           -2.27617336181753        3.12493491687272        0.06328897606625
H           -3.18386965490291        2.01016448129345       -0.98999290707717
H           -3.39271683136208        1.94411106825584        0.74975909364460
H           -1.28207749138935       -3.08856327863538        0.81470571408605
H           -1.09215890579007       -2.99240792104257       -0.96945046969556
H           -2.58170062418739       -2.44721753953823       -0.19464880716256
H            1.03594696175649       -2.73807859636103        0.08326428106052
