25
 energy: 14.799098089824 xtb: 6.6.1 (8d0f1dd)
C            3.47887544930390        1.14461097198038        0.08499132443486
N            2.44254499447349        0.13482563926405        0.08565349017143
C            2.81289867187468       -1.29275588322361       -0.00082308032384
N            1.51720328284230       -1.88343933269844       -0.02198997363617
C            0.47619533250405       -0.98597107124371        0.04311254340519
C            0.98365193460196        0.31082159658787        0.09619465690746
C            0.04455867836410        1.42767802063770        0.08802781156560
O            0.34251325391870        2.62163963519994        0.06433168815699
N           -1.35709373865676        1.04714427993488        0.02059724179496
C           -2.35357228598901        2.10595703431790       -0.03437432102030
C           -1.86124028809369       -0.20714576590878       -0.02387443123733
O           -3.05288132639456       -0.44087259931783       -0.08467411924114
N           -0.90254957604036       -1.24547230574467        0.00696129962992
C           -1.45675105527040       -2.58935126328552       -0.06617047114481
H            3.68959312022728        1.43558866087138        1.12724432634895
H            4.37699381349447        0.64195252879348       -0.37089040148257
H            3.02071975539198        2.03869514404712       -0.40982972536410
H            3.73028327082814       -1.80150814573565       -0.26316163804614
H           -1.83829027656481        3.05372555832816        0.02391184727879
H           -2.93304638984299        2.05635245556424       -0.95851650076786
H           -3.03882612883123        2.02084572954925        0.80654952060437
H           -1.19192721099465       -3.15938250185270        0.82246382013958
H           -1.12197974725315       -3.11262605921404       -0.96402645715715
H           -2.54658491948938       -2.49139743934981       -0.10470852465826
H            1.28444324583432       -2.87037293840713        0.00317131698967
