25
 energy: 64.622754112937 xtb: 6.6.1 (8d0f1dd)
C            3.52066047555364        1.16524990404853        0.11818112521031
N            2.46325805577896        0.19048641686356        0.14133483399119
C            2.99114118841532       -1.31663909333993        0.03969240757498
N            1.57038226661707       -1.82694326901878        0.00869975658697
C            0.50906428842422       -0.93541805151309        0.06741789385482
C            0.99248136702974        0.35618758704248        0.13711042758091
C           -0.03338539467341        1.47664053181599        0.11313661119491
O            0.23143900648225        2.66963593244708        0.10998640469532
N           -1.43129639873726        1.07154151337623        0.04983280307879
C           -2.46103383561092        2.09579565148916       -0.03418676314801
C           -1.89228002975138       -0.20793715926920       -0.01185330051626
O           -3.07623568864283       -0.47990318315534       -0.09542096023997
N           -0.88340933179635       -1.20680244715523        0.03135017758581
C           -1.45072565668821       -2.55092786153879       -0.06799611167507
H            3.71239953555942        1.59274232050373        1.11203591225845
H            4.55688082580341        0.41539578090007       -0.15323954828266
H            3.24168088286253        1.99384176960857       -0.56825687630340
H            3.85419093547261       -1.87547620938784       -0.44847231387196
H           -1.98714076183547        3.06292367739790        0.04243839431114
H           -3.01631442821905        2.03467519952274       -0.97334223248789
H           -3.16297017931866        1.98569719654965        0.78824607979592
H           -1.22016911148298       -3.13272235225421        0.82186993966871
H           -1.10856465970905       -3.06517369173593       -0.96690143862998
H           -2.54166912938190       -2.44359650822610       -0.12795621547928
H            1.22043540184994       -2.79691763168671        0.03150869646361
