25
 energy: 149.449991199520 xtb: 6.6.1 (8d0f1dd)
C            2.91125508979214        1.51188791194802        0.21826959803265
N            2.02216165680311        0.64282378678442        0.43452774243076
C            4.58205724105391       -1.28545891135989       -0.49424941323669
N            1.26701675116603       -1.78430245235271        0.13934071872465
C            0.33239003110861       -0.92874715322677        0.13583993342302
C            0.74360638024011        0.45513257026430        0.19850261231538
C           -0.30042747215447        1.61688279748536        0.14620572939525
O            0.03331239560683        2.77745985554476        0.24611143287903
N           -1.61927275922314        1.18043140227899        0.06436558148276
C           -2.73230968835889        2.13330609053828       -0.03020420812117
C           -1.99617795839988       -0.16518604626773       -0.01605350658389
O           -3.16506954886673       -0.46229522956831       -0.13262652397809
N           -1.03482563725747       -1.14665923551919        0.03649832862252
C           -1.53005842694835       -2.51107588181318       -0.08299472956484
H            3.56129717111445        1.84433268211073        1.00414954382988
H            5.51806469407976       -0.94372414507157        0.03463939072425
H            3.12942087902649        1.96739483979830       -0.74139478970222
H            4.67215315806789       -2.37964422388216       -0.74098179068209
H           -2.37204608121021        3.14980234750516        0.08069955282274
H           -3.23570768481979        2.01949018599901       -0.99139474807063
H           -3.46982082311742        1.92202924957693        0.74079236335325
H           -1.29450285056448       -3.07995616186828        0.81664010729170
H           -1.11667712757208       -2.98342081528089       -0.97401580248319
H           -2.61071828143582       -2.45530257495048       -0.18656721973057
H            0.98958482033683       -2.76137212093071        0.09106137407395
