25
 energy: 176.406205152968 xtb: 6.6.1 (8d0f1dd)
C            3.21940829139217        1.34407744305384        0.17985204118660
N            2.25973761285416        0.50042285255244        0.26207804813281
C            3.77713843233855       -1.26736406700472        0.04812680157462
N            1.46132838883317       -1.78017343343224        0.00314523524989
C            0.47603735467395       -0.94417093553151        0.06422413998642
C            0.94003212491461        0.40707284413466        0.13793347272850
C           -0.10949632992187        1.51245591407530        0.11657338807320
O            0.18720556574986        2.69474095674240        0.12971179080552
N           -1.47736481526068        1.09745345212208        0.05968673840744
C           -2.51102384124240        2.10267885811576       -0.03815545080934
C           -1.92397568153505       -0.20643746432947       -0.00231449682596
O           -3.10544522190278       -0.47971496779245       -0.09177860817582
N           -0.91225601783407       -1.18358495287585        0.03728293297433
C           -1.46266014880812       -2.53683050544884       -0.06589851097664
H            3.77514285067078        1.58734463379640        1.07418643415318
H            4.72043850721847       -0.15381185229625       -0.14748555683202
H            3.26519671081312        2.04853062108782       -0.63276102554334
H            4.05392496153476       -2.07750931629942       -0.61231724838811
H           -2.04486188295272        3.07283331503129        0.04246725637916
H           -3.05230358611988        2.03211751310640       -0.98353824124028
H           -3.21169684249781        1.98233520708565        0.78044088847357
H           -1.23375457889844       -3.11774485595697        0.82566018170738
H           -1.10429036102611       -3.04646962826505       -0.96159156664761
H           -2.55045306050459       -2.43314633864163       -0.13705610834998
H            1.15836694998694       -2.76879720071636        0.03897170490535
