25
 energy: 140.534622822961 xtb: 6.6.1 (8d0f1dd)
C            2.78218783110362        1.62269534783550        0.32933690574402
N            1.87840789790796        0.78658212560502        0.52891677081858
C            5.11297640650392       -1.59968942316330       -0.46763014251773
N            1.18135555905235       -1.79976940030852        0.14042867024399
C            0.26656638109206       -0.91797297790191        0.12432861266408
C            0.64828767808611        0.47333835761981        0.21774012228108
C           -0.32969430453089        1.55803919774563        0.14215048998805
O           -0.00915780124045        2.73496866592629        0.16164337569726
N           -1.64570825969883        1.14623114652594        0.04875045476125
C           -2.69305944809677        2.15844041763878       -0.02030540765200
C           -2.06827204699337       -0.16933059189764       -0.02422134805243
O           -3.24822827580852       -0.42972969754523       -0.11604256521699
N           -1.10636042431734       -1.15373294023684       -0.00143436583898
C           -1.56228707295190       -2.53006382786179       -0.09917880607068
H            3.51492183186547        1.77781243291289        1.10750757080893
H            6.07155806747282       -1.04315137135957       -0.56063674305336
H            2.88193033462378        2.21060394116886       -0.56822099179418
H            5.19130008602074       -2.67524519950026       -0.67218732541547
H           -2.22930453199808        3.13751459061171        0.07917958309172
H           -3.21414809455953        2.09149946449495       -0.97526647743215
H           -3.41434128052522        1.99900806313234        0.78079192750450
H           -1.27165602062026       -3.09196088107911        0.79045820750185
H           -1.14690313401638       -3.00939019447689       -0.98805746988089
H           -2.64815287335752       -2.52088147324679       -0.17408626368276
H            0.91450129688922       -2.77659269413467        0.07078658876309
