25
 energy: 146.991113093338 xtb: 6.6.1 (8d0f1dd)
C            2.85065284147349        1.53228046256360        0.22744456806801
N            1.98060939281833        0.64989312399899        0.45224586084240
C            4.67670022954559       -1.32173357915845       -0.55773274165362
N            1.23017893729577       -1.79925644662565        0.14177123083507
C            0.30596376130512       -0.92970770451792        0.13533405595710
C            0.70836942083032        0.45662428148207        0.19716288722379
C           -0.31446224898355        1.61065823088395        0.13325730559405
O            0.00784633191013        2.77562494579871        0.22587876762773
N           -1.64691069266895        1.19021935615710        0.06283397362658
C           -2.75731891643506        2.15133495439457       -0.02746583302399
C           -2.01657285921737       -0.15703795630484       -0.02002499160828
O           -3.18498981149299       -0.45332029270342       -0.13100240472020
N           -1.05774163855662       -1.14721814366175        0.03102199847498
C           -1.54497376412083       -2.51293661791190       -0.08398854062460
H            3.52750462005115        1.82751223038349        1.00070459070391
H            5.56108448271729       -1.04561466822629        0.01954440862198
H            3.05295827172156        2.03372380456584       -0.71979731062173
H            4.74227429856058       -2.43568342654338       -0.72523738183008
H           -2.37747027557446        3.16165963282516        0.09063421715852
H           -3.25064922759876        2.03705341856450       -0.99510647990636
H           -3.50068608264015        1.92979219085964        0.74131528261677
H           -1.29134596872342       -3.07873072861926        0.81021414707171
H           -1.13266245066567       -2.98643492428514       -0.97454658824759
H           -2.62560667925336       -2.46510364706047       -0.18055259363234
H            0.94876744850571       -2.77361489115356        0.08911647640118
