25
 energy: 27.548750136375 xtb: 6.6.1 (8d0f1dd)
C            3.50516207814341        1.15520925982181        0.09574637383372
N            2.46300555700995        0.15437035497336        0.10786300774953
C            2.87444982447356       -1.30709562398755        0.04112248051421
N            1.53934629490054       -1.86223553209304       -0.01533701560789
C            0.49295487830832       -0.96436620054479        0.05612856554591
C            0.98962414677959        0.33604661966505        0.11571651571486
C            0.01953553718069        1.44677515346871        0.10033931405820
O            0.30425480163585        2.64055005541071        0.08055094986791
N           -1.38187548131401        1.05380855509385        0.03123647558663
C           -2.38934406443642        2.10033188607095       -0.03353240494179
C           -1.87191157066855       -0.20724264584483       -0.01917336649703
O           -3.06118200832160       -0.45344865079854       -0.08853828480123
N           -0.89484410717866       -1.23003575835437        0.01828293340501
C           -1.45341923237573       -2.57496074205268       -0.06711139161285
H            3.68648847535536        1.49465732164251        1.12868709705743
H            4.43862127300116        0.57312217826147       -0.29099244905417
H            3.08922422780332        2.02474934421451       -0.47371141797489
H            3.76297748044986       -1.83049479601220       -0.32950767483320
H           -1.88741755631496        3.05387351502396        0.03169262236980
H           -2.96029220333287        2.04792254571672       -0.96293864853778
H           -3.08024225216749        2.00790585075780        0.80142022701150
H           -1.19967420227243       -3.14948309112769        0.82122866778692
H           -1.11678393363734       -3.09503534825076       -0.96589587907444
H           -2.54409979772565       -2.47426480759392       -0.11212383276756
H            1.26447704094337       -2.84514372862350        0.01036132583718
