25
 energy: 162.070595767483 xtb: 6.6.1 (8d0f1dd)
C            3.09826790662081        1.38222878775053        0.12798821635457
N            2.15291468843190        0.56597840737489        0.33210316873350
C            4.13322585685220       -1.22660731731677       -0.24023429189247
N            1.37745615118385       -1.75170722067358        0.09753700337839
C            0.40744654850793       -0.92300092393201        0.10061162624871
C            0.86486530009666        0.42445572948276        0.17675932940778
C           -0.18721960921233        1.55550302122278        0.13542758238519
O            0.11454533457695        2.72331833903732        0.19215675600344
N           -1.50514561515897        1.14149273155460        0.07061363010037
C           -2.59865989438413        2.11123477587277       -0.03919158506830
C           -1.94932302725016       -0.18918555170457        0.01466805319449
O           -3.12604193095958       -0.44033944654800       -0.08646417900879
N           -0.96679295569112       -1.15644516771911        0.03611496488110
C           -1.48387452873738       -2.52035518511464       -0.07991991223714
H            3.69220317897875        1.70254482883544        0.98528555755885
H            5.12422080140475       -0.47577104374484       -0.13422604253483
H            3.38540652576199        1.89650338113565       -0.80589229311828
H            4.36741161371521       -2.19115881390908       -0.69573284250311
H           -2.18559828785817        3.10723305988963        0.05302901696963
H           -3.12638632949569        2.01851163643525       -0.99323393391117
H           -3.31857697268241        1.95774826284651        0.75869659233427
H           -1.26611711050863       -3.09668686979031        0.81873616290139
H           -1.08396885367487       -3.00692420963679       -0.96762844443419
H           -2.56708686404191       -2.43878996664286       -0.18388136069987
H            1.06609417190149       -2.73098103398974        0.08442850060864
