25
 energy: 141.872444335591 xtb: 6.6.1 (8d0f1dd)
C            2.77983280729691        1.63931219591124        0.32635828708507
N            1.88032936006854        0.79408277015617        0.50836887387203
C            5.12527917060601       -1.59569356338522       -0.46599921245541
N            1.17738240845424       -1.80438051640660        0.13997467318408
C            0.26367143739642       -0.92221748216360        0.11945232048000
C            0.65227379038570        0.46819625117985        0.21394113210005
C           -0.32528540520265        1.55667322829403        0.13875505504240
O            0.00845138692083        2.72892092502322        0.15763552417072
N           -1.63884433909011        1.14901404275937        0.04710469833716
C           -2.68184869639146        2.16130771312283       -0.02306619567724
C           -2.06911167621052       -0.16757154334604       -0.02470283904903
O           -3.24888792396257       -0.42547461707248       -0.10977257995345
N           -1.10683355243947       -1.15466420570141       -0.00232272255879
C           -1.56234470162066       -2.53170044059701       -0.09807176740418
H            3.50673792292202        1.78273835678377        1.11654682017388
H            6.05933754449179       -1.03009230247263       -0.52936381531017
H            2.92572376202056        2.18553278220175       -0.60253246910428
H            5.14032658896675       -2.66970353152347       -0.67439430972352
H           -2.21590046498203        3.13930219419708        0.07519225823869
H           -3.20560246118978        2.08748184933085       -0.97638660227955
H           -3.40201814566534        1.99890190902850        0.77830943602412
H           -1.26821104900384       -3.09275978457336        0.79108775948828
H           -1.14934326541849       -3.00902553126559       -0.98896227804342
H           -2.64776035314056       -2.51924986578156       -0.16956869704630
H            0.91486015976486       -2.77990204495486        0.07945056260484
