25
 energy: 144.039053224352 xtb: 6.6.1 (8d0f1dd)
C            2.81872295158803        1.55338588576034        0.25796450028494
N            1.95414321183506        0.66225373447448        0.48171488635020
C            4.79963477101333       -1.35268938321844       -0.60598230760586
N            1.19539277231506       -1.81878865919650        0.14261194470118
C            0.28684382376869       -0.93008404869754        0.13300131842473
C            0.68826336059671        0.45626777454470        0.20044668641460
C           -0.31483746456750        1.59457447597491        0.13913136444509
O            0.00349583639304        2.75953911196464        0.21293719515791
N           -1.64662178888664        1.19046589883157        0.06196285851068
C           -2.73822824860136        2.16025403216857       -0.02937845551095
C           -2.03341247176224       -0.15392935258853       -0.02166240159095
O           -3.20433431116226       -0.44068943464558       -0.12525503101273
N           -1.07789041080012       -1.14781264797983        0.02511505556624
C           -1.55463506305088       -2.51711190920217       -0.08205547339730
H            3.52749439832196        1.80376161108029        1.03135308811311
H            5.70095092810754       -1.04185857586341       -0.08127217349391
H            2.98706561460774        2.08925986639167       -0.67992994273713
H            4.83917849720049       -2.48013239810483       -0.70116264905523
H           -2.32808590940634        3.15940293598511        0.08648752064532
H           -3.24011029631375        2.06155388129831       -0.99293823978079
H           -3.47875124154502        1.95191677728937        0.74317452259271
H           -1.28318205707711       -3.07868548912240        0.81228087649696
H           -1.13635501319358       -2.99551278398398       -0.96790436610179
H           -2.63593063521473       -2.47752758847866       -0.17388228684987
H            0.91010017123231       -2.79115770165507        0.08488767561923
