25
 energy: 0.000000000000 xtb: 6.6.1 (8d0f1dd)
C            3.23720163006194        1.16630919979326        0.08434469647475
N            2.29877817382611        0.07527477071623        0.03981603040599
C            2.58028210190900       -1.21425402444508        0.03006176031096
N            1.43813958087363       -1.93419271955128        0.00098261760884
C            0.39035688448383       -1.05887472636071       -0.00790371836672
C            0.93510056364412        0.21347819449412        0.01709077491437
C            0.09450143893243        1.40504303904423       -0.00410947031874
O            0.49712751527797        2.54126714362870       -0.00342325688240
N           -1.25076640035757        1.06271879480407       -0.03085478223738
C           -2.21907211982101        2.15522099834493       -0.05001256985998
C           -1.81739487048744       -0.20012725993278       -0.04692818574614
O           -2.99983886758376       -0.37846417018721       -0.07008878229737
N           -0.92618586207120       -1.30210215599479       -0.03682761578324
C           -1.46982264913417       -2.64643102187190       -0.06029820460571
H            3.71247264356769        1.21471455160235        1.06488849150277
H            4.00791497605742        1.03430808813993       -0.67357694370751
H            2.69910007168542        2.09770118228144       -0.09130154882931
H            3.56654120610678       -1.63682992603973        0.04233140067262
H           -1.67107961066214        3.09322851271934       -0.02552706933167
H           -2.82428953597071        2.09428624779827       -0.95318082946668
H           -2.87644029173232        2.07745725625962        0.81450067533302
H           -1.17061996399332       -3.19584890659852        0.83242232437030
H           -1.14560257411436       -3.17511610292205       -0.95688275822323
H           -2.55549792440841       -2.55659984320617       -0.07459039797972
H            1.38130855184625       -2.94313852034425       -0.01389874181052
25
 energy: -2.003697135888 xtb: 6.6.1 (8d0f1dd)
C            3.23969737600170        1.18319778772922        0.08610112049966
N            2.30342449634939        0.08753650772944        0.03804065360835
C            2.58242636065177       -1.25327950750904        0.03028277125253
N            1.40943313254071       -1.99421333191642       -0.00007242658382
C            0.40075970242029       -1.06520290722713       -0.00836864855253
C            0.93004949412513        0.22153642358519        0.01548421701037
C            0.10188808705591        1.40615058303834       -0.00429372287109
O            0.49466746720824        2.57419289811212       -0.00230098902924
N           -1.26049740254143        1.06456907150636       -0.03120804757887
C           -2.22895276117297        2.15682329496533       -0.05026272770225
C           -1.81723719992084       -0.18915565248613       -0.04783140743840
O           -3.01289004500792       -0.37434228809138       -0.07143431647727
N           -0.92789639614675       -1.28990494558851       -0.03711201162201
C           -1.44737742688514       -2.63367168253886       -0.05946020340262
H            3.72508980440912        1.24038963247437        1.06479389252664
H            4.01055178023108        1.06221904154608       -0.67676434464554
H            2.70447373840494        2.11834735022278       -0.08554625026555
H            3.56717130773477       -1.65672672500786        0.04409754816556
H           -1.68072769723273        3.09618009343204       -0.02594296803160
H           -2.83637205860743        2.09899405505225       -0.95336104974280
H           -2.88851547412140        2.08214371451884        0.81403267121319
H           -1.12547410926958       -3.17361942720719        0.83303243631824
H           -1.10046738001076       -3.15398864048815       -0.95431049585950
H           -2.53247044282239       -2.55829907533953       -0.07398217007543
H            1.30146031454246       -3.06084766834015       -0.01657963456874
25
 energy: 5.328647669119 xtb: 6.6.1 (8d0f1dd)
C            3.24123697176124        1.18975700417202        0.08705374906333
N            2.30641612730961        0.08880659267933        0.03544481012963
C            2.57565110582780       -1.28811018632672        0.03137011214098
N            1.37729838356137       -2.04661327257447       -0.00058639843043
C            0.40931755135497       -1.06856905609114       -0.00894993572712
C            0.92624953023405        0.22425840107628        0.01364539438194
C            0.10841424115513        1.40021205296558       -0.00416235030601
O            0.48275593883775        2.58192879507337       -0.00027696531831
N           -1.27142324274252        1.07188723188553       -0.03174382078702
C           -2.23865434357229        2.16432372289379       -0.05067134157582
C           -1.81416592129226       -0.17458830300310       -0.04886833361225
O           -3.01340597406898       -0.37073341261897       -0.07338578803524
N           -0.92867788769904       -1.26901243300234       -0.03745546740126
C           -1.41684856901780       -2.61765620840817       -0.05837314654503
H            3.73646104179039        1.26005573758830        1.06255696948291
H            4.01212632325937        1.09031808464462       -0.68150346834144
H            2.70407285430077        2.12773542104092       -0.07774583422712
H            3.56417904907583       -1.66662628682311        0.04699158342203
H           -1.69265557487483        3.10568711387122       -0.02649549925617
H           -2.84871743085978        2.10636814697112       -0.95289730417861
H           -2.90065165766929        2.08948764721857        0.81266407614226
H           -1.07018668603140       -3.14591910479266        0.83416064112101
H           -1.04510146462166       -3.12796139634689       -0.95128909351823
H           -2.50211172220973       -2.56994610184425       -0.07333550984635
H            1.21063602412753       -3.16606158807681       -0.01911318263042
25
 energy: 10.229553085964 xtb: 6.6.1 (8d0f1dd)
C            3.24108565226332        1.19019696633764        0.08709492271925
N            2.30781915173702        0.08720268396263        0.03404470830800
C            2.57060075032358       -1.29951095144292        0.03247781099482
N            1.36440003194476       -2.06436909051591       -0.00044214929149
C            0.41153511202967       -1.07112899278009       -0.00930301713439
C            0.92556159695571        0.22271948328518        0.01283684080907
C            0.11099692058380        1.39846308434697       -0.00381618642092
O            0.47655160925168        2.58048218792318        0.00107191060449
N           -1.27619577161460        1.07854011542975       -0.03215738246040
C           -2.24205808956079        2.17083228987138       -0.05099997873513
C           -1.81437750942215       -0.16863750479488       -0.04958299997608
O           -3.01296873673802       -0.37112132501937       -0.07478655600756
N           -0.92942795239325       -1.25847604250134       -0.03770725564245
C           -1.40260920372912       -2.61158155850801       -0.05772977369837
H            3.74020890301945        1.26297594418813        1.06061041551283
H            4.01032600621056        1.10094198326014       -0.68466638052034
H            2.70055779381149        2.12826318155477       -0.07308622517085
H            3.56424824972974       -1.66508599846954        0.04873346884095
H           -1.69782815044850        3.11293999461081       -0.02685792488286
H           -2.85280032048993        2.11163317323256       -0.95289463630492
H           -2.90456610458730        2.09478403008220        0.81206801279843
H           -1.04525735051296       -3.13181986713139        0.83563793778552
H           -1.01995510532564       -3.11499878111461       -0.95027484792606
H           -2.48779843012378       -2.58167555804071       -0.07302411145663
H            1.17416561502144       -3.21254084559453       -0.02021270659762
25
 energy: 12.146983680322 xtb: 6.6.1 (8d0f1dd)
C            3.24109931251681        1.19059190006718        0.08709861468041
N            2.30877989890828        0.08720657966576        0.03344605898494
C            2.56946595502016       -1.29959046850696        0.03343462752982
N            1.36301055095209       -2.06625561134931       -0.00014812465013
C            0.41204260137975       -1.07302428788771       -0.00953370017631
C            0.92599020661021        0.22109969069014        0.01237828855245
C            0.11200434846583        1.39856156085661       -0.00381978563072
O            0.47462068997739        2.57894906660084        0.00163481020719
N           -1.27702100063025        1.08100580952509       -0.03242448083611
C           -2.24239515324818        2.17278486601662       -0.05112190750292
C           -1.81517925130568       -0.16792138499891       -0.04985275390041
O           -3.01290431447081       -0.37222026579394       -0.07523092421511
N           -0.92984266509037       -1.25547686418467       -0.03784529136344
C           -1.40059353332551       -2.61031328902658       -0.05752783962324
H            3.74120789228143        1.26223165480149        1.05987090442740
H            4.00913940516192        1.10336940041214       -0.68568747572018
H            2.69944015734044        2.12840173161086       -0.07147067291174
H            3.56576295545843       -1.65969302068636        0.04920282332917
H           -1.69889733636538        3.11505023185319       -0.02702091944170
H           -2.85320335139000        2.11323899668590       -0.95298561061215
H           -2.90478549806981        2.09644062541398        0.81207079697194
H           -1.04198901611481       -3.12783894878851        0.83627982325399
H           -1.01657051181437       -3.11140840594514       -0.95018426974029
H           -2.48523192823240       -2.58527378898954       -0.07292435380597
H            1.16826425392105       -3.23088717587017       -0.02060474165961
25
 energy: 13.793214598189 xtb: 6.6.1 (8d0f1dd)
C            3.24132254148747        1.19107418423930        0.08711254789705
N            2.30952994044587        0.08777506417868        0.03291416287795
C            2.56913998529671       -1.29685026195483        0.03490017082750
N            1.36455215393261       -2.06340572729782        0.00032993251496
C            0.41200534834321       -1.07435746483653       -0.00981788653714
C            0.92642157408315        0.21998558026984        0.01188161955128
C            0.11268307852209        1.39939302102892       -0.00396813079420
O            0.47382296382907        2.57829957243244        0.00204055698766
N           -1.27679870887230        1.08220014092119       -0.03268311432844
C           -2.24220525685682        2.17318908613466       -0.05118211025781
C           -1.81610515871168       -0.16829387450252       -0.04995613725423
O           -3.01305045427077       -0.37271088230035       -0.07529449492905
N           -0.93023661733711       -1.25395192286726       -0.03797432731188
C           -1.40149590164918       -2.61003660504224       -0.05747870585722
H            3.74164769249999        1.26127178844376        1.05958953506311
H            4.00865532999137        1.10386429932980       -0.68602733666876
H            2.69966071806839        2.12880227193995       -0.07079453321425
H            3.56708113626177       -1.65374717311012        0.04883994081627
H           -1.69946323212297        3.11575219365633       -0.02711148536115
H           -2.85308897540028        2.11363444744275       -0.95302728492339
H           -2.90444708967593        2.09684724493104        0.81218160783496
H           -1.04325949421865       -3.12640756510254        0.83651171021734
H           -1.01779621446773       -3.11014946184124       -0.95023045194022
H           -2.48574532529167       -2.58609696096312       -0.07290586536617
H            1.16938463404958       -3.24705239295804       -0.02081602369693
25
 energy: 14.563388385324 xtb: 6.6.1 (8d0f1dd)
C            3.24147365215907        1.19138566761208        0.08712662289701
N            2.30954582717468        0.08832124642427        0.03275479967322
C            2.56930802422715       -1.29487121978967        0.03623096052215
N            1.36640732714587       -2.05967347516139        0.00065098802551
C            0.41165393253367       -1.07402183959279       -0.00998049359062
C            0.92633835117040        0.22055755514941        0.01170580870782
C            0.11264085504443        1.40021158347941       -0.00407629989953
O            0.47417934484574        2.57914735265911        0.00206007677231
N           -1.27633840160821        1.08192335455126       -0.03276604362693
C           -2.24206705579448        2.17259545541404       -0.05117185563015
C           -1.81634946662166       -0.16871227224691       -0.04988497660148
O           -3.01324178742137       -0.37215152248431       -0.07505557955767
N           -0.93033798203148       -1.25407087298536       -0.03802146953767
C           -1.40271562700027       -2.61033433612671       -0.05755077704074
H            3.74140208485129        1.26133734067714        1.05983649946798
H            4.00907753721251        1.10323041902672       -0.68569785452607
H            2.70042313795725        2.12925176094967       -0.07119818719100
H            3.56701591625825       -1.65253243268434        0.04768401020431
H           -1.69958293367039        3.11538539368242       -0.02708498440156
H           -2.85300563496868        2.11317972088214       -0.95300948076728
H           -2.90429926530058        2.09634266778207        0.81223284308853
H           -1.04497728148634       -3.12716471747062        0.83633561901127
H           -1.01953940427026       -3.11085152487174       -0.95027532045565
H           -2.48705039396439       -2.58481541020205       -0.07295013864198
H            1.17225391149399       -3.25464129250186       -0.02086087075449
25
 energy: 14.952111097946 xtb: 6.6.1 (8d0f1dd)
C            3.24150804870609        1.19166374586047        0.08715558328911
N            2.30931187662268        0.08869060729945        0.03284214057320
C            2.56952069405277       -1.29416325676901        0.03757649737672
N            1.36750288864250       -2.05710519085307        0.00081434310721
C            0.41136010341871       -1.07310428683836       -0.01008364423316
C            0.92608378667274        0.22179291079167        0.01174270596669
C            0.11231204117481        1.40072429491447       -0.00412196699547
O            0.47474310121097        2.58022940895231        0.00187423487215
N           -1.27614652103724        1.08137867797924       -0.03276108400237
C           -2.24210332440055        2.17213001378896       -0.05114786243474
C           -1.81616655312429       -0.16881974460195       -0.04980336595268
O           -3.01330487496760       -0.37146926462440       -0.07482519076378
N           -0.93029022616079       -1.25472264265272       -0.03805435045422
C           -1.40320333578033       -2.61062273398541       -0.05762996517769
H            3.74101433628748        1.26196690907957        1.06016025805250
H            4.00960328708458        1.10275933273578       -0.68526195694561
H            2.70085969015864        2.12964506360875       -0.07178259387254
H            3.56646596663592       -1.65379363390761        0.04615654787470
H           -1.69948944909586        3.11494228278856       -0.02702964269432
H           -2.85303717924364        2.11280792443361       -0.95299315588990
H           -2.90436646451573        2.09591158758199        0.81222958385372
H           -1.04570737479581       -3.12813676364324        0.83614172993222
H           -1.02029574934159       -3.11175287225529       -0.95030320520673
H           -2.48772136702228       -2.58357958097478       -0.07299469153847
H            1.17376126675403       -3.25834418653695       -0.02086705258924
25
 energy: 15.106246308444 xtb: 6.6.1 (8d0f1dd)
C            3.24148687353609        1.19191002270082        0.08721182182102
N            2.30908869433479        0.08885869983082        0.03312983877317
C            2.56965808994771       -1.29433381160225        0.03919251745592
N            1.36779180260181       -2.05608076826091        0.00085178325430
C            0.41124861862986       -1.07225892597177       -0.01019869163684
C            0.92591418149697        0.22293906169445        0.01187504482745
C            0.11195477207940        1.40088027578497       -0.00415362487709
O            0.47512282332057        2.58090076175840        0.00160252562248
N           -1.27624307462942        1.08102950389519       -0.03272665020959
C           -2.24224376919845        2.17206897654201       -0.05113034556454
C           -1.81579995587586       -0.16864045050182       -0.04978557880076
O           -3.01319750073068       -0.37114396472545       -0.07472172015778
N           -0.93019145311129       -1.25544527759689       -0.03813485724561
C           -1.40306464976207       -2.61075255503657       -0.05768322895099
H            3.74077175025852        1.26267943194630        1.06035964327333
H            4.00988456855504        1.10269877603939       -0.68496014688448
H            2.70086205455933        2.12988658311688       -0.07215622128296
H            3.56597599328045       -1.65563847006894        0.04434303282412
H           -1.69926384760493        3.11469901347009       -0.02699209890513
H           -2.85311187166312        2.11274813715335       -0.95299258414214
H           -2.90450671864453        2.09581402794017        0.81220603113715
H           -1.04565427274698       -3.12870623374500        0.83605689487287
H           -1.02025617886640       -3.11233786454580       -0.95031617720443
H           -2.48770418896239       -2.58308472850376       -0.07302039705711
H            1.17369192713175       -3.25966161914164       -0.02082291479510
