25
 energy: 0.000000000000 xtb: 6.6.1 (8d0f1dd)
C            3.23720163006194        1.16630919979326        0.08434469647475
N            2.29877817382611        0.07527477071623        0.03981603040599
C            2.58028210190900       -1.21425402444508        0.03006176031096
N            1.43813958087363       -1.93419271955128        0.00098261760884
C            0.39035688448383       -1.05887472636071       -0.00790371836672
C            0.93510056364412        0.21347819449412        0.01709077491437
C            0.09450143893243        1.40504303904423       -0.00410947031874
O            0.49712751527797        2.54126714362870       -0.00342325688240
N           -1.25076640035757        1.06271879480407       -0.03085478223738
C           -2.21907211982101        2.15522099834493       -0.05001256985998
C           -1.81739487048744       -0.20012725993278       -0.04692818574614
O           -2.99983886758376       -0.37846417018721       -0.07008878229737
N           -0.92618586207120       -1.30210215599479       -0.03682761578324
C           -1.46982264913417       -2.64643102187190       -0.06029820460571
H            3.71247264356769        1.21471455160235        1.06488849150277
H            4.00791497605742        1.03430808813993       -0.67357694370751
H            2.69910007168542        2.09770118228144       -0.09130154882931
H            3.56654120610678       -1.63682992603973        0.04233140067262
H           -1.67107961066214        3.09322851271934       -0.02552706933167
H           -2.82428953597071        2.09428624779827       -0.95318082946668
H           -2.87644029173232        2.07745725625962        0.81450067533302
H           -1.17061996399332       -3.19584890659852        0.83242232437030
H           -1.14560257411436       -3.17511610292205       -0.95688275822323
H           -2.55549792440841       -2.55659984320617       -0.07459039797972
H            1.38130855184625       -2.94313852034425       -0.01389874181052
25
 energy: -3.656372492898 xtb: 6.6.1 (8d0f1dd)
C            3.23893895914393        1.19101499013792        0.08544618360333
N            2.33065272230931        0.08234034429591        0.03783719335538
C            2.62571407576854       -1.26507762880278        0.03105034409461
N            1.43307673865838       -1.93642718871783        0.00087441640091
C            0.40512224222134       -1.04679097740724       -0.00824179805772
C            0.94467522448665        0.22734571277646        0.01542560576350
C            0.10039867588339        1.40251307092862       -0.00429027716210
O            0.48655617895201        2.57193289908602       -0.00285994169348
N           -1.26443392699577        1.05826436366995       -0.03079136395119
C           -2.23502673097056        2.14979284211142       -0.04948974389473
C           -1.82293005458937       -0.19440324356589       -0.04779188547663
O           -3.01898601884742       -0.38154963434463       -0.07155389663294
N           -0.92787241135858       -1.29025020127239       -0.03722559735009
C           -1.46533034334187       -2.63281311189195       -0.06039692857000
H            3.71174879561403        1.25423692492661        1.06820305628232
H            4.00673075038228        1.07541944104194       -0.67847034745565
H            2.67734802172477        2.11115302439574       -0.09038348852691
H            3.59989914042372       -1.81821570766521        0.04537575011249
H           -1.68554065260252        3.08813457166964       -0.02487891669205
H           -2.84334810560000        2.09425759443700       -0.95245435393796
H           -2.89545183367104        2.07693801483534        0.81465924043069
H           -1.16143835759575       -3.18293385056190        0.83206532860011
H           -1.13517296777693       -3.16289528221474       -0.95576558659836
H           -2.55127202694806       -2.54643179617073       -0.07558740660137
H            1.35815657266574       -2.93652656952529       -0.01372168989486
25
 energy: 4.034132157782 xtb: 6.6.1 (8d0f1dd)
C            3.23711063833356        1.21700445828457        0.08568619014772
N            2.36742044097848        0.07799806125956        0.03413155468709
C            2.67086415835894       -1.31848236708979        0.03252023633978
N            1.42539756645332       -1.92993829928870        0.00139639768478
C            0.42003980824194       -1.03218828642940       -0.00844169601163
C            0.96043326408073        0.24068673551787        0.01363214462264
C            0.11224676614941        1.39602988128273       -0.00398513868490
O            0.46319513730802        2.58699060874274       -0.00185648849674
N           -1.27557828332563        1.05695014218260       -0.03050779516147
C           -2.24991474247749        2.14670554743822       -0.04863514654857
C           -1.82033088765681       -0.18685187819479       -0.04864036601910
O           -3.02044743107737       -0.38501995242729       -0.07361105990607
N           -0.92625795887852       -1.27359440872098       -0.03757336398368
C           -1.45620016416446       -2.61543803741547       -0.06056948513972
H            3.70903012828043        1.31024532345832        1.06860493161928
H            4.00719089312223        1.13894721168340       -0.68207030382836
H            2.64259192644576        2.12145385947110       -0.08916435840344
H            3.60695443797970       -2.04638538457934        0.04915311109177
H           -1.70551039748816        3.08849249693983       -0.02383751698946
H           -2.86308612566673        2.09227744441609       -0.95006511277343
H           -2.91484065855629        2.07413510501388        0.81379497829174
H           -1.14975299598930       -3.16580588609822        0.83211999228901
H           -1.12129436699804       -3.14676619871104       -0.95472040389396
H           -2.54254392032080       -2.53314660380503       -0.07722371623841
H            1.33549743480327       -2.92527097075883       -0.01310368854757
25
 energy: 10.110222577249 xtb: 6.6.1 (8d0f1dd)
C            3.22924911163049        1.22864273459888        0.08489869330402
N            2.38304643777852        0.06698805495175        0.03220984813839
C            2.68815588169521       -1.34762863489913        0.03357364124977
N            1.42509970461223       -1.93118002641508        0.00266118585440
C            0.42704374035302       -1.02993537308670       -0.00799823095823
C            0.97072934371972        0.24229993211041        0.01352356554089
C            0.12290915406492        1.39658348769638       -0.00323285907066
O            0.45546593397605        2.58948354896475       -0.00093058915491
N           -1.27519104749607        1.06213009064168       -0.03027941389172
C           -2.25410570410266        2.14820724439175       -0.04804844991517
C           -1.81530831700510       -0.18236356369141       -0.04933228551235
O           -3.01457227212383       -0.38522830504667       -0.07548009385188
N           -0.92123739400104       -1.26561804551391       -0.03758480806422
C           -1.44979943517145       -2.60651126745594       -0.06066789852267
H            3.70053142582222        1.34396196642168        1.06655474769000
H            4.00289677681562        1.18254712781913       -0.68325211917146
H            2.61173367701836        2.11996093035264       -0.08896900949159
H            3.59798197982052       -2.15727289244534        0.05000112949996
H           -1.71789914922530        3.09401126989131       -0.02302942957516
H           -2.86940551727334        2.08992855435831       -0.94839795750404
H           -2.92084051236806        2.07103588961912        0.81325999675243
H           -1.14384645493221       -3.15462304317978        0.83324777380059
H           -1.11307136090984       -3.13640142577943       -0.95465297090656
H           -2.53622883952285       -2.52331536046200       -0.07876222295097
H            1.32887750476107       -2.92667429167040       -0.01227834714157
25
 energy: 10.742116270768 xtb: 6.6.1 (8d0f1dd)
C            3.22507454451933        1.23028806358832        0.08452583905161
N            2.38454430566161        0.06324130160146        0.03183106207387
C            2.68982134161028       -1.35199764534600        0.03403368318354
N            1.42745562731729       -1.93208936112857        0.00329341961402
C            0.42783530551010       -1.03125978513512       -0.00769108967054
C            0.97326494842131        0.24093644021404        0.01376426094957
C            0.12664685853618        1.39867196103741       -0.00306288394118
O            0.45477123884288        2.58898573163868       -0.00068890856715
N           -1.27274315909966        1.06461365834155       -0.03021845615848
C           -2.25303050203218        2.14919871415377       -0.04790017144303
C           -1.81376212115628       -0.18164421637022       -0.04949288280849
O           -3.01198903060439       -0.38445966656255       -0.07612686430338
N           -0.91896040445904       -1.26445822051460       -0.03744286985896
C           -1.44868575042603       -2.60540430910734       -0.06064253790076
H            3.69541091768716        1.34889162730850        1.06549780286348
H            3.99845896697935        1.19131321945522       -0.68303668973500
H            2.60307374676867        2.11730837781444       -0.08926973028009
H            3.59303907672061       -2.17168737639127        0.04958191123295
H           -1.71976602898298        3.09623355958325       -0.02285448061338
H           -2.86838422332044        2.08923014771951       -0.94816377410386
H           -2.91967859236471        2.07017339236946        0.81339708078408
H           -1.14363342039006       -3.15262637461150        0.83368828776521
H           -1.11192719736032       -3.13465143393054       -0.95454292332065
H           -2.53516749855077       -2.52161505628105       -0.07930248582526
H            1.33054571810830       -2.92816414727480       -0.01214270284084
25
 energy: 10.583562475284 xtb: 6.6.1 (8d0f1dd)
C            3.22362875159328        1.23052147368446        0.08434848134819
N            2.38493367342415        0.06169629074221        0.03144763432289
C            2.68994194908301       -1.35219300643300        0.03443805001889
N            1.42893938887643       -1.93175473420182        0.00365451870220
C            0.42748664268757       -1.03201928468975       -0.00759891591633
C            0.97459578251058        0.23996189562329        0.01378880595913
C            0.12880411907489        1.39999248460394       -0.00313170049463
O            0.45378471604512        2.58910053337639       -0.00062717266044
N           -1.27099823737202        1.06513842301164       -0.03018979715813
C           -2.25183894185825        2.14911504169900       -0.04782663427581
C           -1.81351282259617       -0.18178451374746       -0.04953166055978
O           -3.01110282325727       -0.38390468134108       -0.07638794848727
N           -0.91805372629423       -1.26417149245922       -0.03732775911002
C           -1.44868018436935       -2.60546448015180       -0.06060147964539
H            3.69320724284756        1.34938206209920        1.06515948674703
H            3.99654786147673        1.19362730321499       -0.68280063212843
H            2.60043418948613        2.11557967363393       -0.08940695438038
H            3.58922837917312       -2.17256461283957        0.04925802015641
H           -1.71989541277511        3.09669685566510       -0.02280708730651
H           -2.86720256538466        2.08874400617617       -0.94808239680011
H           -2.91839380520202        2.06966706288500        0.81353835361449
H           -1.14404304884588       -3.15228702258141        0.83386507167482
H           -1.11189896565166       -3.13440228328005       -0.95441725328386
H           -2.53518053375458       -2.52153354560931       -0.07952464821327
H            1.33148303901885       -2.92811484690878       -0.01220248597641
25
 energy: 10.387278759662 xtb: 6.6.1 (8d0f1dd)
C            3.22381063302059        1.23044239973049        0.08432723490870
N            2.38521748042309        0.06146003201988        0.03110128552369
C            2.69002214499426       -1.35159985028000        0.03470476399028
N            1.42914443817082       -1.93121818713131        0.00380719032502
C            0.42711419196992       -1.03202178406645       -0.00763633165743
C            0.97500983314278        0.23978313292771        0.01368982779425
C            0.12961701479472        1.40018245400133       -0.00320439021462
O            0.45313903865032        2.58944667751465       -0.00063045672610
N           -1.27058067303788        1.06471552165495       -0.03017389461474
C           -2.25142353938783        2.14874289681112       -0.04781244720166
C           -1.81376961880223       -0.18201301174233       -0.04952529352202
O           -3.01124489526905       -0.38380753931104       -0.07641228379497
N           -0.91805956718000       -1.26416457999034       -0.03727326876718
C           -1.44881456972178       -2.60568850011581       -0.06058052894425
H            3.69318943745319        1.34897468705815        1.06525524133283
H            3.99671305298921        1.19354765385487       -0.68273013718325
H            2.60054085105000        2.11524115040133       -0.08936409614566
H            3.58738117273271       -2.17108411356227        0.04908003944059
H           -1.71967257239648        3.09644689331112       -0.02280515795092
H           -2.86682913269864        2.08850891001125       -0.94806826341418
H           -2.91800061407637        2.06944773234316        0.81356786944227
H           -1.14418306451438       -3.15245599656671        0.83389047633433
H           -1.11197983815884       -3.13455859885304       -0.95438550402081
H           -2.53528680522804       -2.52171357227559       -0.07953781756394
H            1.33116026901611       -2.92758580557311       -0.01225016122294
25
 energy: 10.155406021846 xtb: 6.6.1 (8d0f1dd)
C            3.22435232065751        1.23029946149231        0.08434782139396
N            2.38562013100511        0.06140101397162        0.03049647592858
C            2.69030369509686       -1.35089135572445        0.03517643945611
N            1.42902033644372       -1.93061916904699        0.00403715540164
C            0.42678651451690       -1.03177348596627       -0.00772813259000
C            0.97523591264286        0.23990080099247        0.01348088055525
C            0.13043116441832        1.40005514388113       -0.00329858126988
O            0.45255760165940        2.58986265093447       -0.00065547745510
N           -1.27060235529339        1.06402370501514       -0.03015649312976
C           -2.25125118357314        2.14832765544878       -0.04780136193890
C           -1.81412151760021       -0.18220353088221       -0.04950768623802
O           -3.01160063195564       -0.38396378028244       -0.07638150976942
N           -0.91821152113858       -1.26423212485356       -0.03719718465756
C           -1.44883705133543       -2.60594725404336       -0.06056531615291
H            3.69367403213719        1.34840365267122        1.06547344456689
H            3.99747464063402        1.19305288057844       -0.68263479693951
H            2.60126843913217        2.11530564415528       -0.08926413118699
H            3.58516417289752       -2.16929230869601        0.04878207785519
H           -1.71939237334163        3.09603319758989       -0.02279132017436
H           -2.86669625805733        2.08832078743221       -0.94806379355453
H           -2.91787683764106        2.06926940412818        0.81357925007441
H           -1.14412561216361       -3.15275519677729        0.83387529129752
H           -1.11195374085722       -3.13478349943991       -0.95439871812183
H           -2.53526341534535       -2.52186980688518       -0.07950302721762
H            1.33025820499718       -2.92689588352144       -0.01226740998591
