25
 energy: -42.498659581539 xtb: 6.6.1 (8d0f1dd)
C            3.17273482389111        1.31415651611187        0.07937046972751
N            2.26798417041294        0.19448972496864        0.03083819636253
C            2.63422176928078       -1.09467225449703        0.02090369945132
N            1.46084121000224       -1.80150221546366        0.00065636496024
C            0.38761301540604       -0.96540497474819       -0.00708502066118
C            0.88853193307586        0.31809039005846        0.01640832882829
C            0.03080791370147        1.46765808565393       -0.00280130146181
O            0.36817334302529        2.63495458796158       -0.00142798256447
N           -1.32102156556934        1.09577748789932       -0.03078815966776
C           -2.30724820322962        2.16728641687633       -0.04860842580680
C           -1.84611520331695       -0.18127413866420       -0.04953364161104
O           -3.03985562529706       -0.37844408408183       -0.07570953352552
N           -0.94407816405192       -1.24157235162472       -0.03863171751872
C           -1.45077210490781       -2.59809721116935       -0.06100871977028
H            3.65010697362533        1.37015306943473        1.05888807062932
H            3.94890001171872        1.19684182644710       -0.67551942314889
H            2.61624879637425        2.23333138303711       -0.09799398812236
H            4.32752812135625       -3.41860294926561        0.06396307614401
H           -1.76938487740392        3.11239632984229       -0.02425085105145
H           -2.91341876776536        2.10168705797419       -0.95154125750549
H           -2.96347055882072        2.08248537495427        0.81695774348373
H           -1.13572682275257       -3.14106692498709        0.83161926803076
H           -1.10576794382258       -3.12310831792655       -0.95354448464526
H           -2.53839629862372       -2.53549185368512       -0.07836643955254
H            1.43773159120635       -2.80751443115416       -0.01216082844617
