25
 energy: 0.000000000000 xtb: 6.6.1 (8d0f1dd)
C            3.23720163006194        1.16630919979326        0.08434469647475
N            2.29877817382611        0.07527477071623        0.03981603040599
C            2.58028210190900       -1.21425402444508        0.03006176031096
N            1.43813958087363       -1.93419271955128        0.00098261760884
C            0.39035688448383       -1.05887472636071       -0.00790371836672
C            0.93510056364412        0.21347819449412        0.01709077491437
C            0.09450143893243        1.40504303904423       -0.00410947031874
O            0.49712751527797        2.54126714362870       -0.00342325688240
N           -1.25076640035757        1.06271879480407       -0.03085478223738
C           -2.21907211982101        2.15522099834493       -0.05001256985998
C           -1.81739487048744       -0.20012725993278       -0.04692818574614
O           -2.99983886758376       -0.37846417018721       -0.07008878229737
N           -0.92618586207120       -1.30210215599479       -0.03682761578324
C           -1.46982264913417       -2.64643102187190       -0.06029820460571
H            3.71247264356769        1.21471455160235        1.06488849150277
H            4.00791497605742        1.03430808813993       -0.67357694370751
H            2.69910007168542        2.09770118228144       -0.09130154882931
H            3.56654120610678       -1.63682992603973        0.04233140067262
H           -1.67107961066214        3.09322851271934       -0.02552706933167
H           -2.82428953597071        2.09428624779827       -0.95318082946668
H           -2.87644029173232        2.07745725625962        0.81450067533302
H           -1.17061996399332       -3.19584890659852        0.83242232437030
H           -1.14560257411436       -3.17511610292205       -0.95688275822323
H           -2.55549792440841       -2.55659984320617       -0.07459039797972
H            1.38130855184625       -2.94313852034425       -0.01389874181052
25
 energy: -2.809987226676 xtb: 6.6.1 (8d0f1dd)
C            3.23769220847795        1.19342468949804        0.08526261015625
N            2.33328074906253        0.08130848722844        0.03789067074007
C            2.63029934121706       -1.26891016551234        0.03113151540591
N            1.43456842007186       -1.93480385589525        0.00088586216946
C            0.40611958720720       -1.04523174766774       -0.00818815867112
C            0.94596088743337        0.22844677543119        0.01553191904450
C            0.09938455047848        1.40369187743787       -0.00413193507118
O            0.48393304296959        2.57354372937872       -0.00265821411433
N           -1.26553125705850        1.05941169541137       -0.03075507335035
C           -2.23702420511466        2.15063761508499       -0.04948752013204
C           -1.82307016913919       -0.19364919195974       -0.04781681036996
O           -3.01896391835968       -0.38149059055283       -0.07167094441093
N           -0.92723217744144       -1.28900636293753       -0.03720919986774
C           -1.46473600499072       -2.63179811881999       -0.06040688923486
H            3.70982991377774        1.25766127128381        1.06806149151404
H            4.00529242597163        1.07885779202493       -0.67855634000575
H            2.67541959641345        2.11374943199892       -0.09063865798646
H            3.60560743245119       -1.84431963182006        0.04558417890858
H           -1.68879464722579        3.08978139940155       -0.02487132058006
H           -2.84552638405530        2.09479435760459       -0.95236041302797
H           -2.89763792684406        2.07742558987068        0.81453613200831
H           -1.16094359185693       -3.18193919763457        0.83205882869465
H           -1.13456525219281       -3.16192970994660       -0.95572401640338
H           -2.55081047347084       -2.54629418862454       -0.07567842584784
H            1.35966252015410       -2.93433334811189       -0.01375539342051
25
 energy: 8.481566064003 xtb: 6.6.1 (8d0f1dd)
C            3.23401103158791        1.22283149983951        0.08537902378838
N            2.37261309723241        0.07659611840299        0.03435398055966
C            2.68236702939466       -1.32581391270467        0.03258549523628
N            1.42929420822782       -1.92555937068791        0.00139289462640
C            0.42203905873262       -1.02902228112094       -0.00824971541536
C            0.96260126315595        0.24332600275473        0.01404696894003
C            0.10997226826028        1.39876881328962       -0.00356667001097
O            0.45670912343464        2.59072747028238       -0.00139018043916
N           -1.27815100626725        1.05945823696816       -0.03043382792140
C           -2.25417654876290        2.14878003758637       -0.04869191127608
C           -1.82079783311358       -0.18539620275305       -0.04864508366189
O           -3.02062169558326       -0.38486364092376       -0.07381699684756
N           -0.92527477232898       -1.27123146966482       -0.03749723311010
C           -1.45540848143708       -2.61354736809705       -0.06057177918922
H            3.70461324122383        1.31750589999783        1.06846664822111
H            4.00378873233637        1.14573594387081       -0.68204906966092
H            2.63881796592265        2.12780563282392       -0.08999447453254
H            3.62005000266486       -2.10636279620934        0.04928560701402
H           -1.71232989193083        3.09218565565435       -0.02390213345282
H           -2.86763883042565        2.09373645307724       -0.95002775159087
H           -2.91945805606118        2.07555791046829        0.81355445257277
H           -1.14919364510475       -3.16402557261694        0.83209517214463
H           -1.12056905516259       -3.14500261418718       -0.95463709634152
H           -2.54203698874134       -2.53304416916739       -0.07735015247661
H            1.34099445068160       -2.92011767471112       -0.01330227102899
25
 energy: 18.507166410490 xtb: 6.6.1 (8d0f1dd)
C            3.22447229702161        1.23751342769094        0.08452733902056
N            2.39033004205042        0.06500854325779        0.03252442599888
C            2.70544194697254       -1.36027929987726        0.03360763873134
N            1.43073923622340       -1.92614951654947        0.00262725164668
C            0.43047520565364       -1.02595471787461       -0.00769383889012
C            0.97368964346924        0.24609615052211        0.01422873842786
C            0.12048296260748        1.40050862149847       -0.00253323551084
O            0.44626521335083        2.59488165069669       -0.00014014785830
N           -1.27889830418565        1.06600578498075       -0.03015453671110
C           -2.26079399687439        2.15106091649437       -0.04812151480043
C           -1.81575974853788       -0.18001682004104       -0.04937385370784
O           -3.01475507620781       -0.38490589636538       -0.07583644357153
N           -0.91954639215730       -1.26181954513777       -0.03747659355688
C           -1.44865268894302       -2.60292143647610       -0.06066755951563
H            3.69391257631153        1.35722202392542        1.06642233578077
H            3.99822162049878        1.19538544606779       -0.68328659487367
H            2.60434664133844        2.12827322437818       -0.09038044868933
H            3.61990288262386       -2.24919347021144        0.05026603364887
H           -1.72857750275418        3.09923519587273       -0.02311373422433
H           -2.87675393038681        2.09201967540206       -0.94824347123578
H           -2.92831135038363        2.07308516342121        0.81279689455679
H           -1.14297321785311       -3.15096716057677        0.83329230133903
H           -1.11190120127693       -3.13279485451347       -0.95456091855914
H           -2.53541211720076       -2.52143401813663       -0.07896894039728
H            1.33626992657588       -2.92083048627654       -0.01270723090126
25
 energy: 20.524685650073 xtb: 6.6.1 (8d0f1dd)
C            3.22042285800108        1.23994514326816        0.08423010094501
N            2.39108550592371        0.06304285088401        0.03224890768218
C            2.70773980112923       -1.36460414027822        0.03380159074198
N            1.43378144035998       -1.92630224750488        0.00306778910485
C            0.43132675276781       -1.02671948013895       -0.00742164789160
C            0.97544694155108        0.24581455601974        0.01458522810888
C            0.12312111840478        1.40361146988560       -0.00232955908877
O            0.44405633316008        2.59526280171568        0.00010286387794
N           -1.27735611004162        1.06884275886599       -0.03009706738763
C           -2.26076178586188        2.15222065597321       -0.04802934765432
C           -1.81478769611801       -0.17930479302887       -0.04947524960628
O           -3.01269645753235       -0.38439721780932       -0.07636781261287
N           -0.91723460379484       -1.26035401059476       -0.03732363378852
C           -1.44761003047416       -2.60163415176472       -0.06061979591147
H            3.68875893033598        1.36204984324229        1.06542563060651
H            3.99356025006293        1.20344402179797       -0.68287031405383
H            2.59734891698068        2.12700436103749       -0.09090298873002
H            3.62158897165735       -2.27323418831140        0.05017691078272
H           -1.73121588159321        3.10141649283758       -0.02303126482567
H           -2.87667579166935        2.09155120327413       -0.94813668642412
H           -2.92810890232475        2.07253796935795        0.81295420709051
H           -1.14281032375175       -3.14890411989464        0.83364560768953
H           -1.11099579459111       -3.13093250728939       -0.95441651414735
H           -2.53446725887210       -2.51975359540869       -0.07937570457026
H            1.33869748422664       -2.92157507396392       -0.01280735379008
25
 energy: 21.278763281740 xtb: 6.6.1 (8d0f1dd)
C            3.21952537756921        1.24050758053677        0.08414357106587
N            2.39014220526618        0.06339271375070        0.03205237292484
C            2.70724682709503       -1.36378218646147        0.03378015893400
N            1.43559988560377       -1.92544125407950        0.00323665065109
C            0.43067048143416       -1.02717493098115       -0.00736226642722
C            0.97577168941984        0.24551289251783        0.01475383333801
C            0.12403451031822        1.40565071372556       -0.00237075198777
O            0.44221973370054        2.59577511601620        0.00016402967561
N           -1.27639631177063        1.06945578217712       -0.03009913995003
C           -2.26037042484312        2.15218433649928       -0.04802985849750
C           -1.81521600964684       -0.17963755528149       -0.04947812634062
O           -3.01241359361218       -0.38405248795446       -0.07648299238783
N           -0.91654842472153       -1.26006619340301       -0.03721774676673
C           -1.44786141078458       -2.60178046970409       -0.06056875789834
H            3.68731982939532        1.36201206066220        1.06517263018569
H            3.99216264328668        1.20438889931956       -0.68249784216590
H            2.59676584959826        2.12651271150392       -0.09111469722134
H            3.62470168761893       -2.27956982062314        0.05017291530749
H           -1.73175519123697        3.10169497365752       -0.02307416815772
H           -2.87624054117037        2.09131864482993       -0.94814921945318
H           -2.92760418013016        2.07234724964223        0.81303008237694
H           -1.14331835266729       -3.14867473129059        0.83375172626690
H           -1.11132020602619       -3.13073534930415       -0.95432577356934
H           -2.53475350033206       -2.51981335866122       -0.07943266517239
H            1.33985209457199       -2.92099673492257       -0.01302006858327
25
 energy: 21.687476119120 xtb: 6.6.1 (8d0f1dd)
C            3.21971346896616        1.24062439583737        0.08413906152103
N            2.38921781010393        0.06420788193176        0.03187281012070
C            2.70631091916143       -1.36197065597936        0.03368232050648
N            1.43623830002942       -1.92465092814372        0.00332798286964
C            0.42982466770167       -1.02728231213615       -0.00736137988609
C            0.97563796996317        0.24532407827554        0.01483979374539
C            0.12436661658574        1.40645881694769       -0.00240522421093
O            0.44123599372840        2.59626169993258        0.00021227140075
N           -1.27608145902721        1.06909187889191       -0.03010942503822
C           -2.26014226958123        2.15183895858024       -0.04806567650407
C           -1.81595677809590       -0.18005203738532       -0.04946487159365
O           -3.01287522721933       -0.38383114565930       -0.07647861136751
N           -0.91669114749970       -1.26010607678053       -0.03714384454910
C           -1.44830354422375       -2.60216933816982       -0.06054386483224
H            3.68743947432728        1.36125406893489        1.06527627713858
H            3.99227331174166        1.20352927524991       -0.68240886102039
H            2.59754104032134        2.12676144744355       -0.09112612911117
H            3.62859840879960       -2.28111457259074        0.05020275045844
H           -1.73173492876525        3.10148399000950       -0.02312006565016
H           -2.87603956786488        2.09124353259183       -0.94818858203947
H           -2.92740558256030        2.07230485530114        0.81300406502367
H           -1.14367594983751       -3.14891351206063        0.83376318803936
H           -1.11170086930883       -3.13093228013456       -0.95431692619896
H           -2.53515009196937       -2.52010365081093       -0.07939002914718
H            1.33957410245966       -2.92022976790481       -0.01316313352763
25
 energy: 22.042929471444 xtb: 6.6.1 (8d0f1dd)
C            3.22002290780217        1.24064994717251        0.08416363774756
N            2.38854980479346        0.06493328812934        0.03172458079807
C            2.70540637446343       -1.36031740806032        0.03357967766455
N            1.43622168138772       -1.92426431211015        0.00339055279145
C            0.42924679334819       -1.02718131570713       -0.00736420109217
C            0.97529128541185        0.24534204199124        0.01487848454955
C            0.12437689640722        1.40652750126353       -0.00241832984710
O            0.44096785450846        2.59660008651502        0.00023439855969
N           -1.27628803795130        1.06858575827894       -0.03012482336294
C           -2.26019514188210        2.15163325833339       -0.04809706581884
C           -1.81654397614659       -0.18023043861332       -0.04945549872031
O           -3.01345397405577       -0.38378379657384       -0.07644757608465
N           -0.91709068988241       -1.26021261176199       -0.03708801725939
C           -1.44859106693694       -2.60244746366364       -0.06053871017408
H            3.68788315489606        1.36063936388970        1.06544253974110
H            3.99268258877663        1.20242656835970       -0.68244979530167
H            2.59842160532143        2.12740234217335       -0.09107520799560
H            3.63287373566580       -2.28188122424281        0.05027804385397
H           -1.73160338279606        3.10126285360789       -0.02313872578177
H           -2.87610575250256        2.09132005310614       -0.94823560386297
H           -2.92749996291663        2.07238621205575        0.81297251538673
H           -1.14379758478877       -3.14918720273729        0.83373364545318
H           -1.11189429290188       -3.13113823510578       -0.95434433659943
H           -2.53537762294504       -2.52031741891259       -0.07934217600939
H            1.33871147085983       -2.91971924521561       -0.01324411248826
25
 energy: 22.306658658064 xtb: 6.6.1 (8d0f1dd)
C            3.22008707515664        1.24065016955610        0.08418867370322
N            2.38835215023144        0.06520519283058        0.03167885511520
C            2.70490044865372       -1.35962409716476        0.03351921268713
N            1.43592738285651       -1.92437396039494        0.00340984941013
C            0.42919839229385       -1.02703135231817       -0.00735300156324
C            0.97494186312487        0.24554293981909        0.01488259184140
C            0.12414153574923        1.40623638237390       -0.00240680263781
O            0.44122036758127        2.59666769089600        0.00021850669873
N           -1.27675445018089        1.06843908470755       -0.03013421017538
C           -2.26045208470941        2.15172715324350       -0.04810786739322
C           -1.81666757200468       -0.18009474620209       -0.04945099700195
O           -3.01369910226968       -0.38391498003976       -0.07642972652391
N           -0.91734964273010       -1.26028397333243       -0.03706119378453
C           -1.44861445054458       -2.60245316650212       -0.06054363105900
H            3.68807097724713        1.36052812587754        1.06551777766077
H            3.99285768275999        1.20198819354708       -0.68250748078607
H            2.59872044058526        2.12785581990719       -0.09104371958744
H            3.63578045912439       -2.28279153670516        0.05034555497846
H           -1.73152911332178        3.10121925908729       -0.02313489602640
H           -2.87633242281410        2.09149045319716       -0.94826545318383
H           -2.92774839051188        2.07254676010893        0.81296698203849
H           -1.14374991509772       -3.14927753525305        0.83370536676620
H           -1.11188470167323       -3.13118613402337       -0.95436897862859
H           -2.53538600645405       -2.52034389423747       -0.07932657313459
H            1.33818374488403       -2.91969324680659       -0.01326494326647
25
 energy: 22.502954743495 xtb: 6.6.1 (8d0f1dd)
C            3.21994627234616        1.24065554289404        0.08420151096785
N            2.38849353807416        0.06512699291448        0.03173543490813
C            2.70469443946612       -1.35968384849586        0.03348917955416
N            1.43563825522069       -1.92472483502957        0.00338625275345
C            0.42948425480830       -1.02693389662870       -0.00733794238257
C            0.97465110773912        0.24581838595094        0.01486752548797
C            0.12375723611643        1.40594213183281       -0.00238815979179
O            0.44161519180181        2.59657138537021        0.00018070099575
N           -1.27721369386395        1.06866454554229       -0.03013532062485
C           -2.26075394979884        2.15198998402008       -0.04810157707056
C           -1.81646163320813       -0.17979135188358       -0.04945212166787
O           -3.01362163419504       -0.38411140176746       -0.07642993218495
N           -0.91740298360888       -1.26031139916808       -0.03706418813848
C           -1.44850825853483       -2.60227360575534       -0.06054945019711
H            3.68797217950214        1.36078046645445        1.06549036668528
H            3.99276205313082        1.20221519222616       -0.68252306972934
H            2.59849597444454        2.12794185682172       -0.09105368079254
H            3.63730405457895       -2.28403712313823        0.05039916088537
H           -1.73155319214716        3.10131810054196       -0.02312494206327
H           -2.87659059067215        2.09167991898946       -0.94826765796003
H           -2.92800940596429        2.07272905869125        0.81297946458023
H           -1.14368088641877       -3.14920324427855        0.83369667119609
H           -1.11181211940878       -3.13110844208539       -0.95437601745853
H           -2.53531015021341       -2.52025313498987       -0.07933571630388
H            1.33831860874118       -2.91997267685721       -0.01325259550124
