25
 energy: 0.000000000000 xtb: 6.6.1 (8d0f1dd)
C            3.23720163006194        1.16630919979326        0.08434469647475
N            2.29877817382611        0.07527477071623        0.03981603040599
C            2.58028210190900       -1.21425402444508        0.03006176031096
N            1.43813958087363       -1.93419271955128        0.00098261760884
C            0.39035688448383       -1.05887472636071       -0.00790371836672
C            0.93510056364412        0.21347819449412        0.01709077491437
C            0.09450143893243        1.40504303904423       -0.00410947031874
O            0.49712751527797        2.54126714362870       -0.00342325688240
N           -1.25076640035757        1.06271879480407       -0.03085478223738
C           -2.21907211982101        2.15522099834493       -0.05001256985998
C           -1.81739487048744       -0.20012725993278       -0.04692818574614
O           -2.99983886758376       -0.37846417018721       -0.07008878229737
N           -0.92618586207120       -1.30210215599479       -0.03682761578324
C           -1.46982264913417       -2.64643102187190       -0.06029820460571
H            3.71247264356769        1.21471455160235        1.06488849150277
H            4.00791497605742        1.03430808813993       -0.67357694370751
H            2.69910007168542        2.09770118228144       -0.09130154882931
H            3.56654120610678       -1.63682992603973        0.04233140067262
H           -1.67107961066214        3.09322851271934       -0.02552706933167
H           -2.82428953597071        2.09428624779827       -0.95318082946668
H           -2.87644029173232        2.07745725625962        0.81450067533302
H           -1.17061996399332       -3.19584890659852        0.83242232437030
H           -1.14560257411436       -3.17511610292205       -0.95688275822323
H           -2.55549792440841       -2.55659984320617       -0.07459039797972
H            1.38130855184625       -2.94313852034425       -0.01389874181052
25
 energy: -1.933904636128 xtb: 6.6.1 (8d0f1dd)
C            3.23650519882415        1.19548930083149        0.08511598055127
N            2.33506635369306        0.08084398886420        0.03794880708797
C            2.63418478373810       -1.27159798510483        0.03118037108838
N            1.43593249477545       -1.93311604288946        0.00089937740911
C            0.40676327068791       -1.04390650808859       -0.00813438173726
C            0.94663663482455        0.22947634797240        0.01563908410505
C            0.09829230922216        1.40472324133481       -0.00400830086497
O            0.48159880924414        2.57485440474958       -0.00252034777594
N           -1.26656279206605        1.06035025128361       -0.03073420607397
C           -2.23857064230957        2.15142714023705       -0.04949672267652
C           -1.82326236998424       -0.19308432747448       -0.04782840021356
O           -3.01899574353996       -0.38146032225017       -0.07175221422266
N           -0.92684802000972       -1.28810753182050       -0.03718999968698
C           -1.46437748325069       -2.63113125847471       -0.06041251138971
H            3.70819373455707        1.26003435870297        1.06791112273583
H            4.00392640955993        1.08116948562643       -0.67854159920754
H            2.67415985743042        2.11620944414545       -0.09085012416787
H            3.61118661213546       -1.86625780981508        0.04570914352732
H           -1.69117369287887        3.09112736492517       -0.02487670816491
H           -2.84712827305800        2.09530061859762       -0.95233252758027
H           -2.89924638801703        2.07790122205908        0.81446934506470
H           -1.16068602665522       -3.18131578628401        0.83204762099071
H           -1.13423369318475       -3.16132179454639       -0.95569186521131
H           -2.55056636200852       -2.54638356041020       -0.07573906228401
H            1.36141968620642       -2.93219563999943       -0.01377798515558
25
 energy: 12.863879518670 xtb: 6.6.1 (8d0f1dd)
C            3.23112883727629        1.22761463223780        0.08515893551095
N            2.37542361447131        0.07665396530971        0.03459928867494
C            2.69189441508046       -1.33014235684900        0.03258224536070
N            1.43291241170811       -1.92109833482153        0.00139566809950
C            0.42307155412182       -1.02645463775715       -0.00808213939333
C            0.96307882374987        0.24578410931565        0.01443371231706
C            0.10727850004622        1.40130881849549       -0.00327663646053
O            0.45109663241322        2.59377407213119       -0.00112196684222
N           -1.28065177820819        1.06150082139922       -0.03041616720015
C           -2.25746919936186        2.15070753049781       -0.04877096773118
C           -1.82154376928635       -0.18441095475453       -0.04863448942197
O           -3.02109551235953       -0.38474363872993       -0.07392363157040
N           -0.92495667414256       -1.26975501413775       -0.03743306671904
C           -1.45523911822511       -2.61255415787856       -0.06056900648097
H            3.70101815432903        1.32173330759838        1.06828914482656
H            4.00053337188101        1.14926601647760       -0.68184275182387
H            2.63713550535802        2.13390614439892       -0.09061697454736
H            3.63410784402064       -2.15530263374459        0.04929010712522
H           -1.71698096613607        3.09502940710691       -0.02398754510603
H           -2.87090951618419        2.09520766635416       -0.95014406275174
H           -2.92277647611196        2.07702297557015        0.81346743498647
H           -1.14919970041915       -3.16316101028366        0.83205129187112
H           -1.12051359823545       -3.14412830869915       -0.95457729587329
H           -2.54211432219901       -2.53357799483682       -0.07740345762915
H            1.34698563434965       -2.91515182222832       -0.01343377307400
25
 energy: 27.776480596469 xtb: 6.6.1 (8d0f1dd)
C            3.22023751842670        1.24568716499823        0.08431930749836
N            2.39461753452020        0.06591089826225        0.03278296212066
C            2.72107332980167       -1.36877110451101        0.03345612398545
N            1.43608804252109       -1.91990244941683        0.00253729442018
C            0.43260683087172       -1.02202829719621       -0.00746793196050
C            0.97411044699293        0.25056396540531        0.01483304109982
C            0.11683047791028        1.40455087889090       -0.00205528807329
O            0.43676995073764        2.60018411087713        0.00031093548964
N           -1.28334211563192        1.06924282066823       -0.03012663143173
C           -2.26686073704546        2.15379338637822       -0.04824312919531
C           -1.81699873152761       -0.17829626956243       -0.04937340008573
O           -3.01580312990889       -0.38491577411829       -0.07600159173359
N           -0.91898259747681       -1.25896742688912       -0.03739214702667
C           -1.44828985568814       -2.60051274463478       -0.06065398581749
H            3.68874185016450        1.36627098273037        1.06634690553113
H            3.99379998741876        1.20341853092648       -0.68311961112085
H            2.60091343466221        2.13769213194821       -0.09137685544437
H            3.64607735772048       -2.33387121828841        0.05057131346242
H           -1.73665551106935        3.10322517060466       -0.02325591543255
H           -2.88306006989692        2.09441617153049       -0.94833943027466
H           -2.93469987646200        2.07549369307428        0.81256463739500
H           -1.14271209825141       -3.14866654338063        0.83322566980925
H           -1.11157265146854       -3.13049206735406       -0.95444570416942
H           -2.53539239663872       -2.52095947275621       -0.07902361045044
H            1.34471767725381       -2.91403793601478       -0.01303906244802
25
 energy: 33.692597882525 xtb: 6.6.1 (8d0f1dd)
C            3.21557998261867        1.25102986773843        0.08409234764528
N            2.39545127476995        0.06661028272079        0.03229950950823
C            2.72606976516807       -1.37471073318760        0.03301984962117
N            1.44006624204001       -1.91799915009571        0.00275466625508
C            0.43391304131576       -1.02120975946731       -0.00722251269864
C            0.97520214378658        0.25273301214770        0.01531226548807
C            0.11849149352385        1.40956940899755       -0.00171086473776
O            0.43096142317633        2.60256471392138        0.00060445553583
N           -1.28351579770224        1.07307912164281       -0.03006708291880
C           -2.26892011139346        2.15541390677956       -0.04820102513602
C           -1.81666544362593       -0.17720536402478       -0.04944666556517
O           -3.01425213597154       -0.38491724041920       -0.07652162433119
N           -0.91641700202744       -1.25629528907521       -0.03719593058408
C           -1.44665886406362       -2.59834102387570       -0.06055708329222
H            3.68289584288541        1.37393232588444        1.06533266207364
H            3.98833392964458        1.21440634484610       -0.68259359631198
H            2.59377530520359        2.13938767071012       -0.09200981710350
H            3.65859658619519       -2.38905062909796        0.05131587800554
H           -1.74148405858848        3.10582952221754       -0.02325306207800
H           -2.88503551855923        2.09419988274822       -0.94833104061798
H           -2.93655090627984        2.07525477607043        0.81272858387570
H           -1.14187234020774       -3.14570866720544        0.83355237087691
H           -1.11005502053228       -3.12773454928839       -0.95419493435906
H           -2.53396709297554       -2.51901551251893       -0.07935230931294
H            1.34827192953554       -2.91279431599680       -0.01332114369081
25
 energy: 40.774136588266 xtb: 6.6.1 (8d0f1dd)
C            3.21293187991533        1.25614038758695        0.08407407016555
N            2.39155159545962        0.07291649457756        0.03169033031462
C            2.72603813647620       -1.37209934794938        0.03073670780225
N            1.44442063965529       -1.91349448517237        0.00253857946121
C            0.43258772304440       -1.02008484083853       -0.00705612882905
C            0.97348135563625        0.25552335289324        0.01601504678360
C            0.11807250996583        1.41598470882830       -0.00135715400427
O            0.42415012985277        2.60551038571605        0.00086997725375
N           -1.28408547692278        1.07551385323177       -0.03008377312294
C           -2.27068006562853        2.15607314963385       -0.04833733802535
C           -1.81845539257028       -0.17751005571250       -0.04942243922909
O           -3.01449818124582       -0.38488012988561       -0.07672655679770
N           -0.91521088565957       -1.25475264119946       -0.03686042638643
C           -1.44657957333663       -2.59794111809820       -0.06037427821837
H            3.67969446301522        1.37699174183849        1.06480620105654
H            3.98461765002449        1.21897797424383       -0.68181490021336
H            2.59279642011958        2.14307186298769       -0.09240476373763
H            3.68436936797149       -2.44421057026067        0.05324351270656
H           -1.74473713507295        3.10686438731354       -0.02345230494716
H           -2.88649302609636        2.09421898247785       -0.94857876362924
H           -2.93796155286762        2.07539026725924        0.81278348522620
H           -1.14209773673763       -3.14450699807880        0.83379395550973
H           -1.11003152832956       -3.12655356099653       -0.95394500341009
H           -2.53406309617612       -2.51902082453883       -0.07932668292651
H            1.35239644744357       -2.90909437368545       -0.01377745665556
25
 energy: 53.118916610848 xtb: 6.6.1 (8d0f1dd)
C            3.21039257432634        1.26432139353680        0.08435467275091
N            2.38096417222119        0.08844724773222        0.02972826491675
C            2.71968450385193       -1.35731006425899        0.01963378473398
N            1.44927912712373       -1.90456137010353        0.00043637355600
C            0.42786343235218       -1.01752122614765       -0.00674591453660
C            0.96756060317828        0.26038310834952        0.01774183618811
C            0.11495017505912        1.42504934704838        0.00040811188395
O            0.41504313300255        2.61070704721140        0.00168781848213
N           -1.28615936224861        1.07704652266354       -0.03000849899274
C           -2.27337965898669        2.15633193096136       -0.04893401539307
C           -1.82313765275882       -0.17871118457890       -0.04913544640145
O           -3.01725350972134       -0.38444090302328       -0.07683240103367
N           -0.91599022326887       -1.25357366978650       -0.03577142247274
C           -1.44774213296000       -2.59885130949447       -0.05979482494979
H            3.67772191856764        1.37824999705217        1.06492353419135
H            3.98086084291481        1.22024402490800       -0.68127606492840
H            2.59509901952140        2.15231719976781       -0.09206068768149
H            3.74497058426209       -2.53494682501920        0.06223309718398
H           -1.74809579851729        3.10733388471482       -0.02411392566506
H           -2.88859841123542        2.09473328326695       -0.94944102912401
H           -2.94032121186349        2.07628872432032        0.81237963435860
H           -1.14277949640653       -3.14441068855732        0.83428612520811
H           -1.11066448470771       -3.12621008530645       -0.95337879506402
H           -2.53526022972749       -2.52064773960014       -0.07878628591108
H            1.35720675395721       -2.90124004348483       -0.01450004515245
25
 energy: 57.104147031038 xtb: 6.6.1 (8d0f1dd)
C            3.20141564785338        1.28457006435734        0.08594585713030
N            2.35750246909081        0.12307446258872        0.01511081365572
C            2.70861465670219       -1.32319560180906       -0.05615341425149
N            1.46262788655485       -1.87960738234639       -0.01482839973011
C            0.41924791829512       -1.00841122763077       -0.00519671473231
C            0.95441554970061        0.27454708501726        0.02621783533684
C            0.10697290538376        1.44594367889259        0.01579538849825
O            0.39295413370732        2.62231432629610        0.00543571805698
N           -1.29232062537389        1.08267132981253       -0.02852027971786
C           -2.28087559609362        2.15820860939414       -0.05204178261865
C           -1.83199135933059       -0.18037365444358       -0.04731648251126
O           -3.02178369625316       -0.38463978008018       -0.07769845102509
N           -0.91683918136048       -1.24910586286322       -0.02948178971728
C           -1.44774318788208       -2.59931636590745       -0.05644651453118
H            3.67117841266877        1.38114303215935        1.06476609945908
H            3.96841572699350        1.22839362511888       -0.67986847257746
H            2.59632678070174        2.17415374014572       -0.08819141127469
H            3.87508075498370       -2.77323841629444        0.12408577393710
H           -1.75690880746940        3.10937260838362       -0.02720601489310
H           -2.89388925874864        2.09498540994106       -0.95350702553173
H           -2.94695456487684        2.07819321895892        0.80969169179381
H           -1.14217173729497       -3.14312699815458        0.83729385021087
H           -1.10935550647481       -3.12395384603264       -0.95003641883141
H           -2.53550966397875       -2.52368468158781       -0.07598443626760
H            1.37380501043769       -2.87988877174412       -0.01483152372043
25
 energy: 57.262790716478 xtb: 6.6.1 (8d0f1dd)
C            3.18676172588217        1.30821197215202        0.08200390997253
N            2.31288814453995        0.17114514112116        0.01667302113838
C            2.67925210733285       -1.25322875334126       -0.07098169046939
N            1.48258641415136       -1.83819959835420       -0.01686825878110
C            0.40377770952372       -0.99216532327224       -0.00005627891732
C            0.93345616818289        0.29193285176787        0.03310654136127
C            0.09050557310562        1.47322359387731        0.01306153474374
O            0.36782600339216        2.62836506473374        0.00569234823574
N           -1.29809013599282        1.09192823321067       -0.02965525722593
C           -2.28957568044756        2.16108993487325       -0.05118210182322
C           -1.84231531491181       -0.18405313540635       -0.04736890800568
O           -3.02614556813422       -0.38409044645618       -0.07793648239638
N           -0.91851404120421       -1.24284650636645       -0.02809618314342
C           -1.44696485936488       -2.60039796576707       -0.05706362736870
H            3.65842590432922        1.38349264524071        1.05981462580824
H            3.95511403157515        1.22683848622148       -0.67697365467111
H            2.60075609099634        2.20157908193099       -0.09371048868221
H            4.05971611415010       -3.10153136392938        0.14563343558739
H           -1.76739763732264        3.11248926483996       -0.02657839321259
H           -2.90046952104746        2.09512013222001       -0.95290552896598
H           -2.95271741936097        2.07800374427158        0.81173176852187
H           -1.13991634537002       -3.14158028136247        0.83613413040884
H           -1.10660362765271       -3.12156508470969       -0.95032284005237
H           -2.53493646208382       -2.52810989398698       -0.07685598604513
H            1.40479529366779       -2.84662319133644       -0.02026173987019
25
 energy: 54.068267366734 xtb: 6.6.1 (8d0f1dd)
C            3.17655856936840        1.31398709736107        0.07318395431033
N            2.27443410099369        0.19538796867536        0.02686957420547
C            2.64647062703866       -1.16058844848248       -0.00980950506674
N            1.48991795627084       -1.80396112088385       -0.00473919847180
C            0.38975704130078       -0.97448642202969        0.00571702281775
C            0.91497905177388        0.30082847414173        0.03141301639347
C            0.06473671409768        1.47817715762322       -0.00254528084454
O            0.36173446149247        2.63165812468001        0.00210991805621
N           -1.30397866002664        1.09461714927357       -0.03026159653613
C           -2.29546320233195        2.16288346019541       -0.04717821106929
C           -1.84687709914842       -0.18723120775502       -0.04811151821047
O           -3.03269379420724       -0.38225542105717       -0.07763255476357
N           -0.92982179190816       -1.24114605832822       -0.03276507087921
C           -1.44872166837151       -2.60165945111887       -0.06137407410717
H            3.64855503528015        1.37538094427335        1.05422956437439
H            3.95383936225064        1.20522096191619       -0.67631914818782
H            2.61178215253561        2.22214691331725       -0.10374000383702
H            4.21481985232640       -3.31044949493048        0.11499969007739
H           -1.77020962050976        3.11357918368624       -0.02235466014394
H           -2.90457063492289        2.09634655836660       -0.94904880415648
H           -2.95584219157394        2.07709481175612        0.81639046269649
H           -1.13801979082982       -3.14323923243392        0.83103848906479
H           -1.10536144526443       -3.12188212011807       -0.95474737480039
H           -2.53620780440808       -2.53300373550753       -0.08074188286445
H            1.43239744670983       -2.81837749044879       -0.02754891190995
25
 energy: 52.109720903044 xtb: 6.6.1 (8d0f1dd)
C            3.17188671734275        1.31563933901241        0.07933405681078
N            2.26141037388037        0.20031793002378        0.03161616636819
C            2.63680504497783       -1.09193711312935        0.01906293056932
N            1.48451139904218       -1.79178135271244        0.00138050034480
C            0.38341483253929       -0.96538062729279       -0.00128000273032
C            0.89919623520795        0.30865533410947        0.02382478096584
C            0.03955402393279        1.47254775442840        0.00005096421374
O            0.36411199618936        2.63460427731440        0.00369349882078
N           -1.31335985623826        1.09599989046174       -0.02933174758132
C           -2.30278081721566        2.16611278283269       -0.05024063629125
C           -1.84766300610072       -0.18692920014835       -0.05010960812658
O           -3.03882736342282       -0.37891437434255       -0.07783990187694
N           -0.94256827549479       -1.24228157458652       -0.03838929886165
C           -1.45234209384586       -2.60150024372499       -0.05974504459154
H            3.65079349185290        1.37029711794418        1.05924304441221
H            3.94622545961463        1.19480162452125       -0.67443319983837
H            2.61781846925824        2.23505774428729       -0.09570443527481
H            4.33717486269298       -3.43159924305852        0.06454445579149
H           -1.77078389256813        3.11419964969217       -0.02451099006455
H           -2.90866659327300        2.09965050383057       -0.95387815935829
H           -2.96240575813963        2.08072150800862        0.81297939945009
H           -1.13729894178244       -3.14274789585335        0.83295207981155
H           -1.10794202387886       -3.12494109720224       -0.95221862748261
H           -2.53963870295938       -2.53690002169291       -0.07736865188434
H            1.44358908632446       -2.80466411055094       -0.01659767744896
25
 energy: 51.772555347210 xtb: 6.6.1 (8d0f1dd)
C            3.17031907341073        1.31717897991553        0.08133129038302
N            2.26281581779735        0.19909409287160        0.03692472325158
C            2.63946688784888       -1.08271658650469        0.03245154541464
N            1.47605449487406       -1.79705352857822        0.00292374268328
C            0.38584647946551       -0.96593170488934       -0.00564455399363
C            0.89059256614874        0.31477293941212        0.01829644625614
C            0.03076006608802        1.46924913406194       -0.00461252895968
O            0.36763295621101        2.63469460260151       -0.00152567927013
N           -1.31936758248805        1.09715992262234       -0.03107942564296
C           -2.30668999042836        2.16851798659519       -0.04816680345890
C           -1.84601791930729       -0.18456539355073       -0.04973006748410
O           -3.03937785812689       -0.37803793977670       -0.07526780351784
N           -0.94448827392193       -1.24302636493086       -0.04004747156519
C           -1.45244435588352       -2.60006600033867       -0.06178076221600
H            3.65036708884778        1.37430767965581        1.05987649347593
H            3.94303610648669        1.19104196087582       -0.67492596765724
H            2.61717371134580        2.23748976915148       -0.09875976408465
H            4.37803463871594       -3.45327034832366        0.05911506433845
H           -1.76973265605895        3.11433627959762       -0.02334497600596
H           -2.91374150268015        2.10274861676774       -0.95073089833164
H           -2.96341643184861        2.08342223436320        0.81716442048166
H           -1.13776912642131       -3.14303147480387        0.83059040594890
H           -1.10760056031679       -3.12456280343351       -0.95423121953391
H           -2.53996030608952       -2.53701333756423       -0.07988138371454
H            1.44072134426705       -2.80571011362540       -0.01191093064990
25
 energy: 51.661989032955 xtb: 6.6.1 (8d0f1dd)
C            3.17084440947704        1.31623384292289        0.08279297916468
N            2.26437401266300        0.19739754273101        0.03880139595650
C            2.63884743808411       -1.08523924461025        0.03258591069355
N            1.46680422149999       -1.80227468069011        0.00172875692944
C            0.38811828876950       -0.96721486174110       -0.00796586741326
C            0.88565781894997        0.31842196866113        0.01644866347875
C            0.02785302255405        1.46785379121776       -0.00122660201838
O            0.37068924815350        2.63419795558935        0.00166988245581
N           -1.32222069192278        1.09755751082073       -0.03063301727419
C           -2.30811385585008        2.16904198861739       -0.04980736670749
C           -1.84493181584021       -0.18234893073390       -0.04945518548168
O           -3.03903312514606       -0.37812460548547       -0.07589302901290
N           -0.94405107576001       -1.24305068524523       -0.03876682021587
C           -1.45217352978650       -2.59878516746102       -0.06032037159394
H            3.65219831370373        1.37207546759841        1.06008253973655
H            3.94281131802428        1.19250533132715       -0.67566925124981
H            2.61622726730402        2.23591654346197       -0.09537871571645
H            4.39599323419000       -3.44365989800623        0.05197377109324
H           -1.76912888886776        3.11386521084066       -0.02411603489672
H           -2.91264645458363        2.10273253121926       -0.95382060082330
H           -2.96630313828412        2.08391306908923        0.81419273485980
H           -1.13782827029011       -3.14213602857767        0.83230111025393
H           -1.10771030749880       -3.12468544544130       -0.95240966811220
H           -2.53993063796777       -2.53659891752456       -0.07818850590096
H            1.43586786636084       -2.80856568640808       -0.01189281205783
25
 energy: 51.616757926870 xtb: 6.6.1 (8d0f1dd)
C            3.17147989231742        1.31423922988678        0.08238103320188
N            2.26488906414578        0.19540846600105        0.03979759310247
C            2.63540057669798       -1.08916916808930        0.03409101102870
N            1.45983170914616       -1.80507318496873        0.00267452508703
C            0.38842110268253       -0.96835069124666       -0.00896698335474
C            0.88370996068666        0.31904558025668        0.01443134834515
C            0.02781340698130        1.46725099723203       -0.00387292714900
O            0.37210899416201        2.63356541171518       -0.00027542388353
N           -1.32307697687315        1.09722099851645       -0.03172371720502
C           -2.30797892384331        2.16913458530646       -0.04843006992910
C           -1.84528358727182       -0.18109824047447       -0.04978255786084
O           -3.03936843558292       -0.37843267827425       -0.07543356296457
N           -0.94403695187529       -1.24305815868839       -0.03849075234913
C           -1.45252402499188       -2.59847673839678       -0.06151285120298
H            3.65229633528966        1.37245747557608        1.05972262516053
H            3.94398993367059        1.19067021855523       -0.67572824351187
H            2.61594219099719        2.23295222963510       -0.09753179890889
H            4.40870348909932       -3.42644396734565        0.05597575461094
H           -1.76830307486814        3.11361101783384       -0.02344482855300
H           -2.91443638778175        2.10367060467833       -0.95114927174458
H           -2.96451599361327        2.08420109281951        0.81677673001868
H           -1.13857792170660       -3.14266486210914        0.83088612794955
H           -1.10789757789926       -3.12414966416974       -0.95378831713157
H           -2.54033423588114       -2.53650516810227       -0.07975649503169
H            1.43396210424814       -2.81097678397533       -0.00981505157713
25
 energy: 51.582002225592 xtb: 6.6.1 (8d0f1dd)
C            3.17187957358230        1.31217528870528        0.08249800022233
N            2.26497025204552        0.19345442005530        0.03939756724248
C            2.63081600667854       -1.09368802314058        0.03100119267684
N            1.45480306710415       -1.80584006709546        0.00144917768988
C            0.38680772655334       -0.96856803718442       -0.00863375099157
C            0.88357706333915        0.31832366838943        0.01548790176094
C            0.02899417925799        1.46743753783485       -0.00139492396937
O            0.37165411245878        2.63368984271486        0.00177609119236
N           -1.32318140365327        1.09676844220800       -0.03083806358316
C           -2.30757454251350        2.16903908415239       -0.04970820417815
C           -1.84684053226014       -0.18024508448613       -0.04913902886244
O           -3.04049166519029       -0.37834597700200       -0.07583608332777
N           -0.94511877243580       -1.24263648097901       -0.03706718386896
C           -1.45329087341192       -2.59851813107719       -0.06053009412077
H            3.65306173413872        1.37003404009306        1.05988075599066
H            3.94410917194904        1.19031665057911       -0.67597078927223
H            2.61605852094296        2.23126675355372       -0.09562265940351
H            4.42318283296089       -3.41240819734732        0.05537285066807
H           -1.76824308488213        3.11370749091929       -0.02435786156632
H           -2.91281013977148        2.10348363462215       -0.95335571793656
H           -2.96576536461671        2.08491743403749        0.81437444554822
H           -1.13885953854196       -3.14241924615051        0.83192048302282
H           -1.10840689876193       -3.12408207279483       -0.95273844920398
H           -2.54101743438344       -2.53669082910286       -0.07851242013687
H            1.43390067734738       -2.81214353933264       -0.01241933944567
25
 energy: 51.574922667086 xtb: 6.6.1 (8d0f1dd)
C            3.17169403430543        1.31119987880044        0.08190028641587
N            2.26468958451872        0.19244026489270        0.03864737883042
C            2.62713717567804       -1.09673605934795        0.03036342617909
N            1.45297786252752       -1.80503761720591        0.00226463539354
C            0.38432038851128       -0.96769174165257       -0.00828325351461
C            0.88457136583706        0.31740659225488        0.01575069442011
C            0.03038105711725        1.46783678577963       -0.00291791002227
O            0.37059968371200        2.63412846349521        0.00045964085200
N           -1.32278860688343        1.09652071521502       -0.03138325677701
C           -2.30722017185935        2.16900650449833       -0.04880548616033
C           -1.84831184499850       -0.18002237726195       -0.04996051109000
O           -3.04164015987258       -0.37796344775796       -0.07610933725191
N           -0.94669863339351       -1.24215376006703       -0.03762157223804
C           -1.45378848868698       -2.59877766114191       -0.06111218414744
H            3.65228204913040        1.37010802512271        1.05979109150157
H            3.94443088747706        1.18912645531053       -0.67577091131449
H            2.61622940862061        2.23069257170299       -0.09692253043634
H            4.43409045892102       -3.40793768223800        0.05867869224470
H           -1.76829682454101        3.11387863593529       -0.02351245844817
H           -2.91353386151857        2.10387330014945       -0.95185263437769
H           -2.96456422381898        2.08438211971178        0.81598844030661
H           -1.13891335729065       -3.14234547739766        0.83132930415793
H           -1.10829819964630       -3.12391554047552       -0.95327689504760
H           -2.54137809713004       -2.53713261363019       -0.07928232042262
H            1.43424318121972       -2.81185773252029       -0.01132843290602
25
 energy: 51.589625138483 xtb: 6.6.1 (8d0f1dd)
C            3.17147287195620        1.31124731899651        0.08201749820447
N            2.26451868415085        0.19251017040441        0.03846464608228
C            2.62603610633827       -1.09725422461194        0.02987251990613
N            1.45344749499709       -1.80423044883601        0.00164434676344
C            0.38311210575330       -0.96677259330256       -0.00766163058407
C            0.88523898661253        0.31726193780173        0.01676926258578
C            0.03057008545069        1.46792522614787       -0.00213973007058
O            0.36999826857638        2.63436231965969        0.00084271826192
N           -1.32265626804597        1.09652861530851       -0.03082384951094
C           -2.30725841449818        2.16905192281544       -0.04935037681900
C           -1.84864523822945       -0.18026051628853       -0.04924786675475
O           -3.04201260698242       -0.37782060460396       -0.07577063278421
N           -0.94744722555958       -1.24205717381752       -0.03750969185305
C           -1.45384070829577       -2.59889262685275       -0.06086165707203
H            3.65227448510078        1.36984216922847        1.05989318910294
H            3.94414126592411        1.18922718323786       -0.67575141296650
H            2.61623569062674        2.23105806128100       -0.09647959811115
H            4.43789825414358       -3.41010350846373        0.05821971420323
H           -1.76843478255639        3.11395443872903       -0.02421832874075
H           -2.91302957080273        2.10339393328282       -0.95272235137402
H           -2.96507356507923        2.08471910144733        0.81511171699161
H           -1.13868625757824       -3.14241700471933        0.83146452438508
H           -1.10836251115778       -3.12380440029906       -0.95314612309934
H           -2.54138906528502       -2.53726868343624       -0.07883394236070
H            1.43410658237645       -2.81117201093703       -0.01274904823848
25
 energy: 51.599171461128 xtb: 6.6.1 (8d0f1dd)
C            3.17138323248129        1.31151081069228        0.08198210628172
N            2.26454754967500        0.19281550767785        0.03828721080931
C            2.62597113150060       -1.09719439565937        0.03015119787442
N            1.45412326314803       -1.80398758165804        0.00199309111557
C            0.38282035767404       -0.96620032575882       -0.00775115721862
C            0.88548883917558        0.31747821723502        0.01657222185755
C            0.03021782886779        1.46781026947469       -0.00262055736315
O            0.36994688665451        2.63439427955503        0.00061642601975
N           -1.32268463738876        1.09663009206889       -0.03122808355160
C           -2.30741143027069        2.16910504762105       -0.04896727921974
C           -1.84838485817441       -0.18050187604989       -0.05007179226671
O           -3.04198569254322       -0.37768215206998       -0.07620895123658
N           -0.94761492657004       -1.24218206893525       -0.03824852433224
C           -1.45375286117923       -2.59889100344808       -0.06090306290050
H            3.65214026726302        1.37004550239389        1.05985033081170
H            3.94417063472263        1.18930572662966       -0.67574095759976
H            2.61626528759969        2.23134270422925       -0.09671414770508
H            4.43861664067709       -3.41215687906340        0.05816367610199
H           -1.76848902884369        3.11393401660811       -0.02345320963043
H           -2.91329137191503        2.10373965517444       -0.95223728058137
H           -2.96493392299587        2.08418654288513        0.81563538499407
H           -1.13871725323062       -3.14212810906116        0.83162974601118
H           -1.10823228086599       -3.12414968439541       -0.95298775000702
H           -2.54133710207653       -2.53731240511311       -0.07904430532761
H            1.43335811455102       -2.81088328886080       -0.01167043678956
