25
 energy: 0.000000000000 xtb: 6.6.1 (8d0f1dd)
C            3.23720132972391        1.16630909158653        0.08434468864950
N            2.29877796055224        0.07527476373246        0.03981602671198
C            2.58028186251803       -1.21425391179017        0.03006175752192
N            1.43813944744728       -1.93419254010258        0.00098261751768
C            0.39035684826767       -1.05887462812143       -0.00790371763344
C            0.93510047688824        0.21347817468824        0.01709077332874
C            0.09450143016486        1.40504290868848       -0.00410946993748
O            0.49712746915594        2.54126690785742       -0.00342325656480
N           -1.25076628431515        1.06271869620815       -0.03085477937476
C           -2.21907191394203        2.15522079838987       -0.05001256521996
C           -1.81739470187490       -0.20012724136556       -0.04692818139228
O           -2.99983858926755       -0.37846413507442       -0.07008877579474
N           -0.92618577614240       -1.30210203518959       -0.03682761236648
C           -1.46982251276835       -2.64643077634382       -0.06029819901142
H            3.71247229913541        1.21471443890471        1.06488839270555
H            4.00791460421487        1.03430799217987       -0.67357688121503
H            2.69909982127087        2.09770098766290       -0.09130154035862
H            3.56654087521359       -1.63682977417947        0.04233139674524
H           -1.67107945562430        3.09322822573871       -0.02552706696334
H           -2.82428927394145        2.09428605349656       -0.95318074103337
H           -2.87644002486466        2.07745706351925        0.81450059976605
H           -1.17061985538665       -3.19584861009707        0.83242224714061
H           -1.14560246782873       -3.17511580834413       -0.95688266944647
H           -2.55549768731684       -2.55659960601237       -0.07459039105944
H            1.38130842369251       -2.94313824728853       -0.01389874052104
25
 energy: -6.330195613808 xtb: 6.6.1 (8d0f1dd)
C            3.24157700337818        1.17969444753630        0.08612668818070
N            2.32066182894215        0.09324758125403        0.03449825983243
C            2.61739914713108       -1.25791729477807        0.03249359681006
N            1.42169592856878       -1.93566563275237        0.00106881953341
C            0.40432996248926       -1.05538424779075       -0.00819701771704
C            0.93190723002559        0.22794585112517        0.01499429250465
C            0.12113063554313        1.38751497503881       -0.00440725589954
O            0.49008657373459        2.56489114868488       -0.00403615523646
N           -1.26660499109182        1.05205752610397       -0.03096558895463
C           -2.22287899788066        2.14907561085439       -0.04941571138895
C           -1.81490610009878       -0.19379236668710       -0.04720453412282
O           -3.01315996895762       -0.38378510699971       -0.07007555564554
N           -0.93448327276627       -1.29520734820768       -0.03724463479828
C           -1.46871658130000       -2.63746886680541       -0.06041202316634
H            3.71578991498063        1.23230320363833        1.06968723284472
H            4.01195151026450        1.05200537879321       -0.67555919472987
H            2.69035242489546        2.10386961282276       -0.09156732098745
H            3.57602051887899       -1.73715723862374        0.04445128726600
H           -1.66922690140098        3.08550221936407       -0.02505071833443
H           -2.82992231294014        2.09401327459459       -0.95319542592196
H           -2.88143694239716        2.07692875514082        0.81605313667475
H           -1.16624132227900       -3.19061717675910        0.83180673736263
H           -1.14152332332873       -3.17037799310064       -0.95636337384125
H           -2.55428200610643       -2.55053618387279       -0.07471832808805
H            1.36173679465465       -2.93872702367270       -0.01460169964513
25
 energy: -5.404518776373 xtb: 6.6.1 (8d0f1dd)
C            3.24325798044076        1.18646867534660        0.08625598601397
N            2.33860062648737        0.08397935363079        0.03377891392988
C            2.63547298327118       -1.27846089496273        0.03270519617232
N            1.42534831869320       -1.93391012981917        0.00229418043411
C            0.41059778423728       -1.05046345521802       -0.00828667439785
C            0.94472298891984        0.23034506339497        0.01437548122154
C            0.12826317623088        1.39007164874420       -0.00398729639666
O            0.48696846094521        2.57051782280534       -0.00377970031135
N           -1.26504217104601        1.05308196455994       -0.03086526615066
C           -2.22631814913628        2.14741670084401       -0.04916338937323
C           -1.81455193249537       -0.19183905243219       -0.04746489915808
O           -3.01293905018023       -0.38329609228263       -0.07022762678987
N           -0.93055960388923       -1.29010563744635       -0.03737514938316
C           -1.46602287531851       -2.63274750405811       -0.06043929131029
H            3.71599776744233        1.24595404890047        1.07022717922665
H            4.01297214174445        1.06935374349641       -0.67714803522504
H            2.68000912200506        2.10600517776129       -0.09060877949361
H            3.57149021028870       -1.82730545587214        0.04600089015930
H           -1.67540385737151        3.08491693476089       -0.02484086865669
H           -2.83488381111672        2.09229075048190       -0.95253631362070
H           -2.88620478112431        2.07508272483702        0.81594210151777
H           -1.16403467716109       -3.18632050380985        0.83161183149703
H           -1.13866418178345       -3.16620186829120       -0.95591583859157
H           -2.55190721319415       -2.54627209422230       -0.07522207723832
H            1.35171392769795       -2.93523140260392       -0.01421037447078
25
 energy: -3.488006899389 xtb: 6.6.1 (8d0f1dd)
C            3.24380689198907        1.19232534293057        0.08606304966644
N            2.35480736885185        0.07495714828964        0.03286443020864
C            2.65293519265853       -1.29876369187811        0.03278036015024
N            1.42847745529051       -1.93042534536182        0.00130906680671
C            0.41584644086155       -1.04468919772287       -0.00840873599179
C            0.95577886094155        0.23362057996733        0.01407334011927
C            0.13259171230065        1.39442550127219       -0.00334813024661
O            0.48350356001073        2.57649165511377       -0.00316545788557
N           -1.26441254397865        1.05524460215686       -0.03062360278714
C           -2.23002403966675        2.14726357205290       -0.04909101218132
C           -1.81416163742973       -0.18930086999424       -0.04766001892372
O           -3.01277665732318       -0.38180576665427       -0.07058405137906
N           -0.92734230280610       -1.28490100763020       -0.03736511830383
C           -1.46306914627651       -2.62840712855213       -0.06046537055756
H            3.71567632066359        1.25726309459718        1.07009331919013
H            4.01262607605963        1.08493385731028       -0.67902556406965
H            2.66859565055590        2.10702531645794       -0.08941964711312
H            3.56580896577883       -1.91398088816156        0.04732513986674
H           -1.68224486999123        3.08624706150912       -0.02473526618058
H           -2.83957179586234        2.09152045351169       -0.95221680308328
H           -2.89116607617657        2.07432421082128        0.81549082574050
H           -1.16081624317295       -3.18198450917336        0.83144956374500
H           -1.13468602864588       -3.16187901650163       -0.95547889171664
H           -2.54936709461005       -2.54404097892726       -0.07580036008861
H            1.34338639415805       -2.92977548699297       -0.01388619226228
25
 energy: -0.574271178845 xtb: 6.6.1 (8d0f1dd)
C            3.24328077375670        1.19790647383842        0.08520490075533
N            2.37060630047339        0.06492293387150        0.03198811794482
C            2.67009560649213       -1.32155381041697        0.03300438278946
N            1.43133070456860       -1.92882064524825       -0.00198474778893
C            0.42129395753534       -1.03981916311470       -0.00840534419711
C            0.96650791370518        0.23581292257810        0.01462815510713
C            0.13491230249779        1.39797771326332       -0.00136092846649
O            0.47903387941255        2.58128015518151       -0.00145629783997
N           -1.26464775355978        1.05759621577789       -0.02994700126462
C           -2.23421188442012        2.14783517995707       -0.04896013372699
C           -1.81349585186560       -0.18695322681727       -0.04783916287822
O           -3.01230860771354       -0.38089255554438       -0.07145617429816
N           -0.92381930833696       -1.27976392821009       -0.03726849030227
C           -1.45938252237618       -2.62409369384440       -0.06074953468210
H            3.71464759308261        1.27025763989726        1.06894951388637
H            4.01166699760688        1.10189006890912       -0.68139523835023
H            2.65508074387112        2.10682687846270       -0.08903885387153
H            3.55926088555076       -2.00092630892359        0.04865835823479
H           -1.68957475480173        3.08841065016510       -0.02428940832872
H           -2.84457888943274        2.09192452732511       -0.95191271449693
H           -2.89714330584896        2.07460367936773        0.81464083611233
H           -1.15717715692001       -3.17776789596860        0.83109084996544
H           -1.12976809024426       -3.15741526911321       -0.95531450689466
H           -2.54587694773726       -2.54118760181366       -0.07692431344958
H            1.33855190263755       -2.92695656506004       -0.01342381057006
25
 energy: 3.339175611397 xtb: 6.6.1 (8d0f1dd)
C            3.24360271051389        1.20314259202101        0.08573452973363
N            2.38620574250704        0.05451753381932        0.03102844997739
C            2.68594276272694       -1.34544947646766        0.03204743362701
N            1.43421189976243       -1.92699268774892       -0.00874545933271
C            0.42660357241388       -1.03560528457200       -0.00974627831022
C            0.97720203274316        0.23732026405446        0.01461172338849
C            0.13611259528188        1.40039461832694        0.00124063852893
O            0.47166525623895        2.58538006607827       -0.00117753356462
N           -1.26530639172759        1.05860598436465       -0.02971525615679
C           -2.23798642074966        2.14769439779602       -0.04865431506147
C           -1.81276818146238       -0.18617374687159       -0.04812064750344
O           -3.01169489685035       -0.38212983118611       -0.07163484062431
N           -0.92023388393603       -1.27568898464112       -0.03762810194040
C           -1.45589329824814       -2.62065142943861       -0.06031278514366
H            3.71396412510463        1.28301721063929        1.06946691359025
H            4.01319105484342        1.11946572727665       -0.68092654428057
H            2.64434297234954        2.10693282145128       -0.08752663388358
H            3.55010693437552       -2.08850868366377        0.04956375519553
H           -1.69486043748122        3.08903581810644       -0.02434765175887
H           -2.84996879120865        2.09216781333025       -0.95086171717758
H           -2.90172609259765        2.07491010383014        0.81468064185625
H           -1.15363581633020       -3.17411925889924        0.83165058260794
H           -1.12639196030649       -3.15457224546498       -0.95449861778532
H           -2.54244711928944       -2.53774112121148       -0.07643808777818
H            1.34007121281355       -2.92347643658705       -0.01583619924542
25
 energy: 8.257460016829 xtb: 6.6.1 (8d0f1dd)
C            3.24230599993393        1.20976289882408        0.08465120298851
N            2.39520112921131        0.05061624560410        0.03035675327837
C            2.70133260392958       -1.36437796471443        0.02992721122515
N            1.43873863099457       -1.92407809563539       -0.01043563646539
C            0.43183191486173       -1.03230668805229       -0.00842943051323
C            0.98213606013650        0.24022317013061        0.01742167309129
C            0.13491254630483        1.40373242604153        0.00685063952393
O            0.46329066032228        2.58984251157600        0.00124011424609
N           -1.26651533582583        1.06014425455347       -0.02855345902280
C           -2.24224377156273        2.14742328929007       -0.04806342176669
C           -1.81162810870358       -0.18568723355408       -0.04857902735727
O           -3.01047479205529       -0.38477932699106       -0.07424096923006
N           -0.91662976404955       -1.27229992520410       -0.03725992510086
C           -1.45400464177627       -2.61706732876909       -0.06092133980781
H            3.71285856821781        1.29708108348524        1.06797424840543
H            4.01316728005850        1.13572754403362       -0.68194909223526
H            2.63312563101876        2.10768241960215       -0.08892001259317
H            3.54922594242362       -2.16884299850353        0.04855421600321
H           -1.70023920237019        3.08940885277816       -0.02346767555606
H           -2.85472861588300        2.09198838490824       -0.95014420574364
H           -2.90708683552117        2.07429640347683        0.81459652061183
H           -1.15402907026664       -3.17140068956211        0.83122693537200
H           -1.12434042873800       -3.15129141316765       -0.95475965765919
H           -2.54050734174469       -2.53257985798645       -0.07858562810099
H            1.34347296020683       -2.91904519715444       -0.01415705471150
25
 energy: 14.202246270333 xtb: 6.6.1 (8d0f1dd)
C            3.23825884975653        1.21857612884941        0.08362692833810
N            2.39523716333579        0.05633320882420        0.02934413269224
C            2.70939375988763       -1.36606492362618        0.00529216713161
N            1.44271493152559       -1.91794955584024       -0.01377645395743
C            0.43361061188161       -1.02794492056188       -0.00691108214419
C            0.98070162250210        0.24539140524080        0.02092865528557
C            0.13171796424923        1.40939982836526        0.00940061841903
O            0.45692003094426        2.59556850392720        0.00344201778671
N           -1.26846717347555        1.06357220318000       -0.02798296643140
C           -2.24824593121822        2.14748808877434       -0.04802603607216
C           -1.81110872102816       -0.18424673662325       -0.04885595754350
O           -3.00907552134649       -0.38599979447036       -0.07484480491966
N           -0.91407254352074       -1.26840925903949       -0.03697246375279
C           -1.45093600116873       -2.61280329212953       -0.06088337959329
H            3.71076227485083        1.30849530474080        1.06653045309265
H            4.01059067261394        1.15261861544494       -0.68339548943031
H            2.62002964700893        2.11011693341353       -0.08819954800410
H            3.57411539811872       -2.23205793857179        0.05486757159338
H           -1.70976290610421        3.09145347754318       -0.02334650880451
H           -2.86055605885566        2.08997827123058       -0.95002316086837
H           -2.91460253113411        2.07261440121237        0.81335720846979
H           -1.15144956906171       -3.16549485601431        0.83243857837991
H           -1.12011590719803       -3.14740959365388       -0.95416395510021
H           -2.53712292188577       -2.52501265510647       -0.07968096597426
H            1.34793649765427       -2.91251628074523       -0.01662429600700
25
 energy: 21.466979343320 xtb: 6.6.1 (8d0f1dd)
C            3.23322750273816        1.22551522854215        0.08273788727779
N            2.39292735181290        0.06235302163425        0.02607762412609
C            2.71690930822556       -1.36658433606196       -0.02974793803777
N            1.44648412423978       -1.91217014613545       -0.01865936606984
C            0.43394315384125       -1.02409605920343       -0.00658455678424
C            0.97746577473628        0.24984563460149        0.02407932832805
C            0.12758674567398        1.41492630285329        0.01104804087717
O            0.45080558190133        2.60080397290200        0.00696515538895
N           -1.27045392814050        1.06710576327788       -0.02711799833786
C           -2.25376030760297        2.14963739018013       -0.04907237665053
C           -1.81039834136653       -0.18332084989232       -0.04806900202339
O           -3.00716880689728       -0.38673628510975       -0.07159486741466
N           -0.91205965769405       -1.26581800976707       -0.03737305852849
C           -1.44817532547552       -2.60978829139526       -0.06051650001014
H            3.70778799766966        1.31460020734508        1.06516543926595
H            4.00636051469727        1.16862781618169       -0.68525580647488
H            2.60729873025326        2.11098533977204       -0.08496653999129
H            3.60947101883355       -2.29264090677678        0.07276468334012
H           -1.71929746201576        3.09574863443272       -0.02458901158716
H           -2.86543598436168        2.09089143281335       -0.95123529992291
H           -2.92396401594590        2.07570886309942        0.80942487744696
H           -1.14728350605624       -3.15960249591607        0.83379015813148
H           -1.11712334966584       -3.14513200588362       -0.95322719323180
H           -2.53418562422512       -2.52020089677010       -0.07866722454529
H            1.35553684169271       -2.90650271902785       -0.02216901968274
25
 energy: 46.587253234034 xtb: 6.6.1 (8d0f1dd)
C            3.21627416639000        1.24975770417726        0.07979510547680
N            2.34319388293794        0.10172077051421        0.01367630881721
C            2.65979147831421       -1.22169982573884       -0.07099727135410
N            1.46542713207245       -1.86411992956655       -0.02859234750856
C            0.41738516246608       -0.99846544497862       -0.00084265979397
C            0.95184741055830        0.27301991170931        0.03393433419138
C            0.09278680743500        1.44066757416589        0.01303815436530
O            0.42813087448376        2.60774131572045        0.00175056580220
N           -1.27588589005323        1.07940199681572       -0.02873462267965
C           -2.26384324121581        2.15425469495412       -0.04834896008250
C           -1.81759196781212       -0.18705474601053       -0.04741145401965
O           -3.01189413628149       -0.38097915556573       -0.07667065443185
N           -0.91888464718900       -1.25632288050602       -0.03234264971140
C           -1.44917555005195       -2.60610563762039       -0.05950895744712
H            3.69182560933400        1.32676584448509        1.06257475856123
H            3.99667874273405        1.17503534954693       -0.67824667502792
H            2.60681510933306        2.14154452069641       -0.09070306577899
H            3.84497862115159       -2.70826199207776        0.13280942145246
H           -1.72632319794761        3.09863506567783       -0.02335179898871
H           -2.87547867899320        2.09072322358220       -0.94896718985705
H           -2.92674523644853        2.07176267770724        0.81399279760522
H           -1.14683871771140       -3.15823859191317        0.83194820126878
H           -1.11715549382807       -3.13727329757413       -0.95340145941697
H           -2.53532472199008       -2.52088111586318       -0.07739002169284
H            1.39538451566624       -2.86743180161241       -0.02371386294074
25
 energy: 46.639510521094 xtb: 6.6.1 (8d0f1dd)
C            3.21233102538175        1.26127470173832        0.07899811569255
N            2.33481626701556        0.11588434590819        0.01241143030630
C            2.65763580009598       -1.20103080277003       -0.05756611419307
N            1.46794109772531       -1.85203289883408       -0.02657182292174
C            0.41395039781725       -0.99128845119707       -0.00062170719389
C            0.94462058589543        0.28147157182216        0.03135870090352
C            0.08348255024934        1.44711048718747        0.00995447220771
O            0.41752894875653        2.61294432628525        0.00251309485741
N           -1.28166280121060        1.08320320455450       -0.02707593437085
C           -2.27101881483066        2.15644003223878       -0.04859602411866
C           -1.82163505909194       -0.18643686650091       -0.04623746106366
O           -3.01546826718119       -0.38091098923003       -0.07743828209900
N           -0.92092111330111       -1.25211162015812       -0.02880893453376
C           -1.44764132299870       -2.60293187659909       -0.05974936316972
H            3.68965754795196        1.33838427645357        1.06091162580127
H            3.99327053442939        1.18834799382679       -0.67938814023503
H            2.60596778573555        2.15453729271426       -0.08992583717687
H            3.89974205369428       -2.81176568382469        0.13697516979853
H           -1.73347192209225        3.10117251693634       -0.02318421080795
H           -2.88263952630749        2.09219881420082       -0.94920196311674
H           -2.93417470434412        2.07439784401294        0.81365174616555
H           -1.14692755689329       -3.15418686973202        0.83261655828983
H           -1.11132341153033       -3.13293850488874       -0.95272275327067
H           -2.53390342263179       -2.51963566156749       -0.08147753624809
H            1.40496145148021       -2.85641967328536       -0.02364103321285
25
 energy: 47.125161682321 xtb: 6.6.1 (8d0f1dd)
C            3.20752060319942        1.27356353425640        0.07948456810245
N            2.32626098530531        0.13082159346971        0.01519022832111
C            2.65482412035865       -1.18200091189788       -0.05052751224108
N            1.46877626934199       -1.84073833547315       -0.02302967323494
C            0.41020367885122       -0.98447753015145        0.00111902592478
C            0.93678103271878        0.28975137273534        0.03144638200249
C            0.07488046878634        1.45271162196394        0.00545139525528
O            0.40770208603807        2.61898128633858        0.00307107210202
N           -1.28792144713470        1.08683834122165       -0.02834725252992
C           -2.27792242017244        2.15885119225542       -0.05018644444327
C           -1.82605659854914       -0.18480544319934       -0.04672607633744
O           -3.01960424145016       -0.38059575911200       -0.07832647631214
N           -0.92369616507989       -1.24763779886496       -0.02797477338872
C           -1.44567724978334       -2.60003197912881       -0.05998889416070
H            3.68638541349678        1.35406623100908        1.06025816808238
H            3.98875294266435        1.19892473742125       -0.67901616916917
H            2.60559191141532        2.16855974959077       -0.09188161699296
H            3.95260865698594       -2.91803921621796        0.14215800253841
H           -1.74095732580802        3.10419064686221       -0.02303879955961
H           -2.88870520863071        2.09395088832646       -0.95166453686508
H           -2.94109875947988        2.07613871341710        0.81173122362323
H           -1.14151620977328       -3.14967780760095        0.83200912040943
H           -1.10810569417818       -3.12832058009916       -0.95364726175889
H           -2.53278635522745       -2.52334412308865       -0.07866844443297
H            1.41242870431291       -2.84581582074729       -0.02661134086634
25
 energy: 47.928803256490 xtb: 6.6.1 (8d0f1dd)
C            3.20058703334040        1.28571180625144        0.08074338593490
N            2.31656372586471        0.14542150253607        0.01640271545782
C            2.65207223757261       -1.16407498134280       -0.03755609424129
N            1.46937444264896       -1.83019081394041       -0.01747887919310
C            0.40596634387099       -0.97886805006221        0.00156106580821
C            0.92798450221526        0.29686673110716        0.02874986480803
C            0.06616651107721        1.45722075268920        0.00110886281316
O            0.39837135778912        2.62388689358711        0.00305098307601
N           -1.29425125763160        1.08937316690453       -0.02979011926374
C           -2.28477903077119        2.16016914806637       -0.05021145012693
C           -1.83048479116349       -0.18392254269884       -0.04724742969035
O           -3.02395660142105       -0.38020584182181       -0.07795236407018
N           -0.92730940704938       -1.24500078059763       -0.02906994465917
C           -1.44528427635365       -2.59799099889717       -0.05895399407393
H            3.68035156240200        1.36368062988287        1.06098355496542
H            3.98081214585738        1.21178813632327       -0.67810069108615
H            2.60472134730286        2.18395002407604       -0.09110625380434
H            4.01200769543821       -3.02417269579594        0.14410825181719
H           -1.74841942102809        3.10591458918394       -0.02445869830314
H           -2.89544723510121        2.09370333979901       -0.95154763249535
H           -2.94674925902343        2.07586311997687        0.81273862952036
H           -1.13885051728595       -3.14529875306865        0.83346923991470
H           -1.10687424599882       -3.12474609129602       -0.95284319135788
H           -2.53266300838789       -2.52633669169028       -0.07721756733041
H            1.42039879388550       -2.83580442714223       -0.02760336423972
25
 energy: 48.849696347453 xtb: 6.6.1 (8d0f1dd)
C            3.19254075148608        1.29699554338130        0.08107499207001
N            2.30555274712441        0.15945171850017        0.02053011983332
C            2.64835268492301       -1.14601754536512       -0.01771645339613
N            1.46885413638728       -1.82005501380393       -0.00999069183005
C            0.40091638665871       -0.97385290521140        0.00302302044973
C            0.91836952702382        0.30329216343031        0.02746965083485
C            0.05664378586275        1.46048061888669       -0.00001022177450
O            0.38793392650179        2.62771041407842        0.00286298496040
N           -1.30137971173573        1.09075781521989       -0.03030010266449
C           -2.29108615026914        2.16136678557941       -0.04782103882419
C           -1.83545028000145       -0.18389170545789       -0.04782734194050
O           -3.02894171348899       -0.37998274812989       -0.07804543421482
N           -0.93190572197609       -1.24361249521760       -0.03075967004096
C           -1.44617653351298       -2.59791080294349       -0.05676925987763
H            3.67206543060376        1.37422957492128        1.06081799062584
H            3.96993075610174        1.21948614575136       -0.67848534893114
H            2.60345082803740        2.19774689643309       -0.09435445124896
H            4.07957466245132       -3.13054505961946        0.14172594829889
H           -1.75482905894568        3.10733527882596       -0.02573214859493
H           -2.90208263847044        2.09484394971249       -0.94826791742711
H           -2.95063288049709        2.07570478370777        0.81682393035105
H           -1.13925191241829       -3.14263923395761        0.83702847541644
H           -1.10470741158282       -3.12334567152598       -0.94975046541431
H           -2.53352973551476       -2.52985074596456       -0.07930573266627
H            1.42769897430531       -2.82599543182338       -0.02854144120393
25
 energy: 49.770344342748 xtb: 6.6.1 (8d0f1dd)
C            3.18398566083337        1.30583009885785        0.08037397235560
N            2.29319563340797        0.17260243880140        0.02399914486492
C            2.64385492611576       -1.12796512086214       -0.00194230809162
N            1.46686364166199       -1.81078316727977       -0.00382902818747
C            0.39543582590563       -0.96944615155777        0.00252674985251
C            0.90815634185908        0.30908828442141        0.02488541965513
C            0.04669735295755        1.46290427041078        0.00109567815496
O            0.37757022814151        2.63058544142199        0.00443614507883
N           -1.30901187620164        1.09189890931922       -0.02961236186229
C           -2.29747123655728        2.16302608679753       -0.04920303526217
C           -1.84045116816402       -0.18384287352794       -0.04893877367197
O           -3.03402363828171       -0.37964056650581       -0.07847812947851
N           -0.93667138315399       -1.24268186266253       -0.03307722027561
C           -1.44690390024512       -2.59838081475572       -0.05943035886526
H            3.66195631650617        1.37939507728381        1.06001489186159
H            3.95818346958229        1.21985402663761       -0.67883507567051
H            2.60507689535908        2.21083494726933       -0.09965954740869
H            4.15607996113540       -3.23462298847259        0.12676815746351
H           -1.76164370750776        3.10925424049721       -0.02567671619599
H           -2.90523402540656        2.09750139612460       -0.95240433537191
H           -2.95834451929742        2.07835934580385        0.81362523041091
H           -1.13665029510241       -3.14136969661055        0.83440873617569
H           -1.10231575513379       -3.12140526306948       -0.95229414431735
H           -2.53466514177268       -2.53318560744011       -0.08033202146764
H            1.43440632789214       -2.81684606237734       -0.02723061401210
25
 energy: 50.570543007881 xtb: 6.6.1 (8d0f1dd)
C            3.17775250433186        1.31159275748046        0.07584278452592
N            2.28014512574316        0.18532460780455        0.02563608755983
C            2.63848074719798       -1.10920366243198        0.00866783702821
N            1.46379009731632       -1.80404676927892       -0.00148550127899
C            0.39011779480219       -0.96595754060034       -0.00194984752060
C            0.89760394153868        0.31471203718751        0.02023531303607
C            0.03719671856099        1.46573669701568        0.00001974114494
O            0.36776730593608        2.63402547509238        0.00213520714734
N           -1.31610613192116        1.09339978153933       -0.02973526985728
C           -2.30317541014889        2.16503204478794       -0.04916246219607
C           -1.84408111449734       -0.18296754964974       -0.04921078237695
O           -3.03787719955615       -0.37923085820801       -0.07812285465975
N           -0.94129104259869       -1.24236211770711       -0.03554248467037
C           -1.44955751305393       -2.59905803439404       -0.05993343121939
H            3.65224285863625        1.37792637201289        1.05653883091260
H            3.95518736548639        1.20901582423163       -0.67852398672667
H            2.61135428238199        2.22412562952477       -0.10217899984843
H            4.23627009257318       -3.33288436017392        0.10091845073165
H           -1.76641983405499        3.11066640639579       -0.02568248361057
H           -2.91124893630979        2.10009117428582       -0.95117824333092
H           -2.96106521018213        2.08188305329500        0.81612407103844
H           -1.13552905109565       -3.14283217358967        0.83211897905628
H           -1.10464388641102       -3.12258267357363       -0.95313011413995
H           -2.53731419280956       -2.53557865657346       -0.07767226080316
H            1.44111339394477       -2.80936051042413       -0.01947065041990
25
 energy: 51.274500193245 xtb: 6.6.1 (8d0f1dd)
C            3.17273482389111        1.31415651611187        0.07937046972751
N            2.26798417041294        0.19448972496864        0.03083819636253
C            2.63422176928078       -1.09467225449703        0.02090369945132
N            1.46084121000224       -1.80150221546366        0.00065636496024
C            0.38761301540604       -0.96540497474819       -0.00708502066118
C            0.88853193307586        0.31809039005846        0.01640832882829
C            0.03080791370147        1.46765808565393       -0.00280130146181
O            0.36817334302529        2.63495458796158       -0.00142798256447
N           -1.32102156556934        1.09577748789932       -0.03078815966776
C           -2.30724820322962        2.16728641687633       -0.04860842580680
C           -1.84611520331695       -0.18127413866420       -0.04953364161104
O           -3.03985562529706       -0.37844408408183       -0.07570953352552
N           -0.94407816405192       -1.24157235162472       -0.03863171751872
C           -1.45077210490781       -2.59809721116935       -0.06100871977028
H            3.65010697362533        1.37015306943473        1.05888807062932
H            3.94890001171872        1.19684182644710       -0.67551942314889
H            2.61624879637425        2.23333138303711       -0.09799398812236
H            4.32752812135625       -3.41860294926561        0.06396307614401
H           -1.76938487740392        3.11239632984229       -0.02425085105145
H           -2.91341876776536        2.10168705797419       -0.95154125750549
H           -2.96347055882072        2.08248537495427        0.81695774348373
H           -1.13572682275257       -3.14106692498709        0.83161926803076
H           -1.10576794382258       -3.12310831792655       -0.95354448464526
H           -2.53839629862372       -2.53549185368512       -0.07836643955254
H            1.43773159120635       -2.80751443115416       -0.01216082844617
25
 energy: 51.599142873843 xtb: 6.6.1 (8d0f1dd)
C            3.17138293824969        1.31151068901417        0.08198209867566
N            2.26454733957695        0.19281548978900        0.03828720725714
C            2.62597088787073       -1.09719429386491        0.03015119507708
N            1.45412312823876       -1.80398741428939        0.00199309093066
C            0.38282032215709       -0.96620023611760       -0.00775115649949
C            0.88548875702253        0.31747818778033        0.01657222032003
C            0.03021782606427        1.46781013329558       -0.00262055712002
O            0.36994685233193        2.63439403514369        0.00061642596256
N           -1.32268451467398        1.09662999032678       -0.03122808065435
C           -2.30741121619585        2.16910484637787       -0.04896727467670
C           -1.84838468668671       -0.18050185930346       -0.05007178762120
O           -3.04198541031675       -0.37768211702974       -0.07620894416614
N           -0.94761483865312       -1.24218195368926       -0.03824852078365
C           -1.45375272630432       -2.59889076233063       -0.06090305725009
H            3.65213992842820        1.37004537528510        1.05985023248191
H            3.94417026879410        1.18930561628938       -0.67574089490650
H            2.61626504487030        2.23134249721185       -0.09671413873223
H            4.43861622887531       -3.41215656249353        0.05816367070574
H           -1.76848886476849        3.11393372770648       -0.02345320745451
H           -2.91329110162844        2.10373945999567       -0.95223719223560
H           -2.96493364791803        2.08418634952044        0.81563530932182
H           -1.13871714758379       -3.14212781754377        0.83162966885502
H           -1.10823217804746       -3.12414939454600       -0.95298766159162
H           -2.54133686629876       -2.53731216970874       -0.07904429799411
H            1.43335798156828       -2.81088302807533       -0.01167043570681
