72
 energy: -99.647361315602 xtb: 6.6.1 (8d0f1dd)
N           -1.79907788050213        2.96244904844429        2.38703991683359
C           -1.77379914955109        2.24909466599411        1.35147501671448
C           -2.91388396135129        2.12291856981983        0.37440186182991
C           -3.47837413294049        0.71165826792306        0.43601387627969
C           -4.41665282775488        0.28505582403044       -0.50727209711476
C           -4.96264129799758       -0.98495340345646       -0.46592965287315
O           -5.88712253309274       -1.47310822628807       -1.34099397055094
C           -6.40887513680435       -0.61289814488702       -2.32082235233046
C           -4.56141100937132       -1.88560835754322        0.54627735973996
O           -5.14789127212267       -3.11662646046429        0.50497254776309
C           -4.84853139682141       -4.03306749955962        1.52643882978008
C           -3.63571294682406       -1.46176062061967        1.48132153724270
C           -3.10347341692304       -0.17798318931722        1.42516467420623
C           -2.30717707498781        2.37770403669943       -1.02771149991872
C           -1.44314898633450        1.23645377568737       -1.60001827132534
C           -0.09830221933259        1.04946616810474       -0.96842128388053
N            0.49097292619762       -0.11221908920805       -0.71203253803460
C            1.81026130273757       -0.27799434389183       -0.50749724693970
C            3.89457486013268       -0.93114923701519       -2.19802148139185
C            5.02869414421446       -0.70404787865633       -1.45039404948550
C            5.73185558303607        0.50452050582140       -1.55498346585992
C            6.87392201438434        0.71618908617149       -0.82905788538208
C            7.34980207629504       -0.24803441536507        0.04915535253876
O            8.48118892627641       -0.14328437440976        0.80079221326015
C            9.20128054454326        1.05553275042789        0.72882016214155
C            6.65257612400374       -1.47432315982711        0.16981091874886
O            7.22399101471542       -2.37662286047538        1.01946957286063
C            6.59929685534540       -3.62201915531200        1.17980238035722
C            5.52073021714542       -1.68778258164433       -0.56236834407613
C           -0.34341020313540       -1.29994171222128       -0.64724519942909
C           -4.07665301368502        3.11946910051605        0.63716050578970
C           -4.75250524414389        2.83038927233601        1.97586822699502
C           -3.62861142193919        4.57848389992938        0.59892827829747
H           -4.73129560072892        0.96641062983135       -1.28103377854944
H           -6.89070543986575        0.26173805926625       -1.87164150575228
H           -7.15615689621919       -1.19702961655350       -2.85572923234005
H           -5.63899018202459       -0.27950734779785       -3.02539654455442
H           -5.11107668758950       -3.63647773123755        2.51305900850992
H           -5.45703247316600       -4.91262123198055        1.31992790599849
H           -3.79022099264806       -4.31705714289477        1.52150034458406
H           -3.32068210502427       -2.12009116261127        2.27547301962630
H           -2.40559488361783        0.12840153143860        2.18825883396828
H           -3.12884615784703        2.54828304410125       -1.72744063353886
H           -1.71374215841193        3.29040508732722       -0.99484583433028
H           -2.02082770813949        0.31665268933296       -1.54891817555554
H           -1.29896413154145        1.47458944054808       -2.68183561644916
H           -0.89095242319436        1.67319518153855        0.99968915636157
H            0.54250483214915        1.92065815412382       -0.95406857950558
H            2.14215108337367       -1.10886698454594        0.10102001193276
H            2.37841457724321        0.60842084458370       -0.27159411870805
H            3.63400294413464       -0.25431817125432       -2.97462363819509
H            3.46953675401273       -1.90489891349757       -2.24311275881996
H            5.37005501731695        1.26553200098048       -2.22673950541794
H            7.41109003554234        1.63873289813972       -0.96723496951009
H            8.59971391034345        1.91710063899417        1.04513965789450
H            9.58841875849387        1.24210332434771       -0.27483425890120
H           10.04131490259014        0.93228422051673        1.41358619342793
H            7.19416731751221       -4.14874676300482        1.92565678626113
H            5.57506375073571       -3.52485058411851        1.52856447535599
H            6.59826583390065       -4.19509579763579        0.24849879792047
H            4.97556681500639       -2.61509081357732       -0.48761318506865
H           -0.60425458665593       -1.61661859353589       -1.65369983802233
H           -1.24957008078001       -1.07803475235118       -0.06339408781773
H            0.21619972258775       -2.12324247730960       -0.17964272988490
H           -4.81584742294458        2.97473606112403       -0.16045319218263
H           -4.04247748446109        2.97206998885465        2.78127304934370
H           -5.12689127159164        1.81007422011635        2.01183455449301
H           -5.58672106716103        3.51132596234639        2.12842134344711
H           -2.88213981885915        4.75190479041045        1.36544988950099
H           -3.22016867369298        4.84635774864571       -0.37117709160695
H           -4.48035939696341        5.22750530351894        0.79669387855911
H           -0.93568993284988        2.95806578165624        2.92396376991537
