72
 energy: -99.404774731144 gnorm: 0.003231577588 xtb: 6.6.1 (8d0f1dd)
N           -2.19466440935876        2.06042185256756        2.73857343221405
C           -2.07454832585984        2.46620135058243        1.55769180615213
C           -2.95337414088144        2.00670741853857        0.42539866248115
C           -3.38449885878866        0.54729450751810        0.48082684754822
C           -4.22662653591821        0.06604072722570       -0.52662823361897
C           -4.65734068855562       -1.24963302374805       -0.55094713386008
O           -5.48385832715696       -1.78312653093174       -1.47635519212751
C           -6.06244583139564       -0.94666854979587       -2.44953172706623
C           -4.22225792002552       -2.14750442207520        0.46018539251711
O           -4.68941195185017       -3.40917050101717        0.36235183744705
C           -4.39620910280043       -4.32648873872241        1.39018107276708
C           -3.37700923232104       -1.66891088383526        1.44782161027523
C           -2.96794368476986       -0.34203367082295        1.45827708064299
C           -2.22136099770257        2.26400662047751       -0.91505007278709
C           -1.23639394012966        1.16570659342544       -1.32135982802526
C           -0.14782739526962        0.91877785152852       -0.26807568670469
N            0.77739935360130       -0.09936243391162       -0.71526583172367
C            1.90298019642881        0.24242791986860       -1.31964544201710
C            2.91019550429734       -0.68105196698731       -1.88694404139542
C            4.27112913848442       -0.37478644481741       -1.28911538689329
C            4.91562334366158        0.81569389325635       -1.58065679127706
C            6.15040286884939        1.10687633660772       -1.02164131431575
C            6.76929127815551        0.20626960613583       -0.16682230867620
O            7.96454898089924        0.38116397898676        0.42701996640347
C            8.68990053239176        1.56313168250764        0.17651162375763
C            6.11952412942922       -1.02378682680420        0.12609167189285
O            6.79886296358999       -1.84986543656984        0.94627461637710
C            6.27203677287374       -3.12284571159276        1.23504339324671
C            4.87660104461992       -1.28664581032261       -0.43043684331303
C            0.34693382499781       -1.47226846426899       -0.60175756415346
C           -4.24132644870819        2.90171809279704        0.50725395624954
C           -5.10853307867853        2.50038593573373        1.69625350433649
C           -3.92530783662074        4.39542732808138        0.57547557516535
H           -4.56521818970711        0.73528724513405       -1.29981491988515
H           -6.63769023983387       -0.13635786018134       -1.99146578807335
H           -6.73327070712843       -1.58515250199026       -3.02113728645984
H           -5.30678530793816       -0.52605205054320       -3.12117853602590
H           -4.75343495074423       -3.96795199303417        2.36002182774761
H           -4.92430845140354       -5.24057389385540        1.12603829416141
H           -3.32290846258757       -4.53374672538046        1.45051431596482
H           -3.03786161923252       -2.32136953463061        2.23616985080059
H           -2.35144268425564       -0.00037182974745        2.27297753377703
H           -2.95629907332667        2.36074130283404       -1.71477338013369
H           -1.68466819707501        3.21233016995004       -0.85685525526723
H           -1.77914177665908        0.23558390868082       -1.49615722763518
H           -0.76057293311563        1.45822809128944       -2.26145490812194
H           -1.36318290856327        3.25216052049903        1.26652060896230
H            0.40534757887343        1.84136255039510       -0.08327480994433
H           -0.61539286259716        0.58347561836502        0.65865916057293
H            2.12880200918040        1.29656630107310       -1.35847640032971
H            2.96894201987149       -0.51362823060944       -2.96942320153974
H            2.65190414451807       -1.72448365146748       -1.71935690590138
H            4.46662429339453        1.52476235877606       -2.25917804683581
H            6.62907488580275        2.04040634936343       -1.26753860893121
H            8.14466143894950        2.44781203108480        0.51951554484012
H            8.92890243614637        1.66941713282659       -0.88578851941512
H            9.61230176484726        1.46514374526776        0.74557297585831
H            7.01368096317598       -3.60924902534108        1.86560734877714
H            5.32547919785685       -3.05245584533383        1.78060561634613
H            6.12851270468084       -3.71310134060007        0.32464408270411
H            4.37764591378401       -2.21781369684473       -0.21231041958094
H            0.21470915466930       -1.92877057357764       -1.58466114918390
H           -0.60245319247547       -1.50889308753523       -0.07230956801295
H            1.07982365539114       -2.05538526468593       -0.04171382436712
H           -4.81103920766107        2.72494384313796       -0.41015013587280
H           -4.53054088306497        2.52873054062267        2.61672293437574
H           -5.49958965925674        1.49402116775176        1.57365829849098
H           -5.94563275616138        3.18716473564516        1.79002590145806
H           -3.44549428220996        4.65150230306575        1.51673229087384
H           -3.28774400636387        4.71357431786214       -0.24528147785517
H           -4.85288644613167        4.95943061907374        0.51168356323725
H           -1.59682899193195        2.49274949534774        3.43689641141567
