72
 energy: -99.606782564276 xtb: 6.6.1 (8d0f1dd)
N           -1.48056456735140        2.71720571812013        2.42857894484681
C           -1.39362844623095        2.00468290002515        1.39485532376685
C           -2.47589972404324        1.90106581179346        0.34108194233701
C           -3.13182485293850        0.53523211730899        0.43235051620728
C           -4.07860625317362        0.16924978579204       -0.52546667693592
C           -4.71177930875748       -1.05467401956881       -0.48910214761452
O           -5.64705168255428       -1.47748219769839       -1.38193774308812
C           -6.07570268106840       -0.58152226628966       -2.37675961009562
C           -4.39031565165820       -1.97327848026592        0.53332919197340
O           -5.06508709369846       -3.15906587940386        0.48238898578704
C           -4.83514138509973       -4.10216686908866        1.49323299460872
C           -3.45248373935887       -1.61019365279651        1.47907607956730
C           -2.83239945797657       -0.36636251998936        1.43358855623687
C           -1.82456803852212        2.04811461120291       -1.00990364290554
C           -1.37301840406503        1.02952123922583       -1.95883031451609
C           -0.08088280215175        1.04259159200116       -1.27789268148922
N            0.38725149152770        0.05246414334184       -0.43950071071553
C            1.80644603208752        0.09662673161171       -0.09987121010877
C            2.75705833464472       -0.37964389001607       -1.23527355017802
C            4.19904946421732       -0.29334928852451       -0.81852939947354
C            4.93284794842647        0.86183603623546       -1.01152060365967
C            6.25583302681345        0.94692316033416       -0.59559814841924
C            6.86706041156152       -0.12624515790512        0.02566015432600
O            8.15256292263594       -0.15540660802248        0.46597901575309
C            8.96509562466227        0.97229455546731        0.26585187664136
C            6.12893679244310       -1.31304700705810        0.23528460816478
O            6.81006462684164       -2.31538090883939        0.85414156831109
C            6.16662902650502       -3.54359498554354        1.07381593702923
C            4.81383593994534       -1.37863502919161       -0.18813098126834
C           -0.15149759234822       -1.28820536870371       -0.58178834045366
C           -3.55783628962437        2.99768975467370        0.54016766841722
C           -4.41852788985360        2.74636546550206        1.76143421725412
C           -3.01661715062636        4.41917270711225        0.53950399440624
H           -4.32380652301346        0.86959051458197       -1.30720358188952
H           -6.47654118339672        0.34286194554538       -1.94915035217308
H           -6.86237390893423       -1.10422345381591       -2.91739081475452
H           -5.26898852383748       -0.33175498313088       -3.07197346806845
H           -5.09412901549805       -3.70542313773951        2.48096763420813
H           -5.48750627883762       -4.94181863100378        1.25819971543503
H           -3.79465381866009       -4.44472957302404        1.50224446972509
H           -3.19341369621453       -2.28598085677593        2.27816223800816
H           -2.12014104961902       -0.11811657549150        2.20577124738409
H           -3.82226427427060        2.61884315598621       -1.77822871554615
H           -1.46054761275156        3.03526232640130       -1.20559312357829
H           -1.90124986258709        0.09691033064497       -1.88800799422309
H           -1.25038353386243        1.39494929685795       -2.95895001970701
H           -0.53206111066644        1.37821044719341        1.15026163337777
H            0.61802857643333        1.86238434306376       -1.41192322948623
H            1.97833368470685       -0.51596951995332        0.79115892161878
H            2.08662026532348        1.11462530162678        0.16008823299796
H            2.59959127164729        0.23714818096611       -2.11856985487734
H            2.51850036285697       -1.41291878615503       -1.50068138868057
H            4.47880633138063        1.70908217411317       -1.50025067586170
H            6.80230677328685        1.86123464812632       -0.76615169861872
H            8.57769100500017        1.84913145693709        0.79460476290204
H            9.07702398207654        1.20757377654861       -0.79760354198564
H            9.93874363853259        0.70936513012127        0.67636473808246
H            6.90694684889647       -4.18196026081959        1.55372753771171
H            5.30325939922802       -3.43615912220933        1.73847290726822
H            5.84880960599157       -4.00843442206459        0.13482735431136
H            4.24867013698022       -2.28637692552074       -0.03675496027873
H           -0.03747240610107       -1.67042915124248       -1.60506760884809
H           -1.19199374335994       -1.28432687816049       -0.28425765889807
H            0.38711252579595       -1.97928168026024        0.07220325561449
H           -4.20122916450298        2.91416213810210       -0.34859539059967
H           -3.80548446450211        2.81454353532697        2.64435446466230
H           -4.85797533156467        1.75324495000389        1.72902430236930
H           -5.21429305523455        3.48681445783165        1.81170889656974
H           -2.34633131879855        4.55156714713783        1.37925832120487
H           -2.49929636830500        4.66144618656855       -0.38475597758526
H           -3.84257617322753        5.11752561313419        0.63287875628486
H           -0.68151820758218        2.67112327524163        3.06235504135604
