  72
        -99.21918025
 N         -1.4936037714        2.1715103279        2.9207799976
 C         -1.4352220187        1.9815263951        1.5943148170
 C         -2.5991039790        2.5654765261        0.6353297107
 C         -2.4740865477        1.1512899224        0.9256702022
 C         -2.7836965616       -2.7433314572        0.0633174624
 C         -4.0913626801       -2.6866660747       -0.1493662491
 O         -4.9751411378       -3.7269265447       -0.2510065124
 C         -4.4681529107       -5.0397680435       -0.2519002986
 C         -4.7812859497       -1.3978007808       -0.3492923786
 O         -5.9801940729       -1.5471230187       -0.9257991967
 C         -6.8536524218       -0.4440914042       -1.0195605410
 C         -4.2404920261       -0.1996719851        0.0097324851
 C         -3.0360383563       -0.0412181374        0.7609384189
 C         -2.1026953784        3.0954009181       -0.7048097324
 C         -1.4832838893        2.0250228129       -1.6245165279
 C         -0.1359849662        1.6176373681       -1.1763278392
 N          0.3196245902        0.3818298333       -1.0896296278
 C          1.6606594816        0.1372245345       -0.6123914612
 C          2.6252689833       -0.2685310469       -1.7425577219
 C          4.0379178530       -0.2470656283       -1.2275005170
 C          4.9066581367        0.7733966651       -1.5762123148
 C          6.1984282886        0.8088200075       -1.0736461641
 C          6.6434513832       -0.1710859929       -0.1979011688
 O          7.8687249711       -0.2332227824        0.3527175536
 C          8.8220683382        0.7506149721        0.0216266889
 C          5.7543424720       -1.2184334387        0.1747124622
 O          6.2609453097       -2.1225025000        1.0351695945
 C          5.4518701376       -3.1896852982        1.4691063600
 C          4.4717978568       -1.2383352083       -0.3494402193
 C         -0.4469477832       -0.7666991785       -1.5088110213
 C         -3.7088788156        3.3936027471        1.2756973564
 C         -4.4012366830        2.6569319164        2.4177013510
 C         -3.1631356648        4.7326711508        1.7689597208
 H         -2.1422329885       -3.5808249481        0.2526912075
 H         -3.7737460793       -5.1980707353       -1.0843991670
 H         -5.3366879741       -5.6887936597       -0.3733465555
 H         -3.9605025981       -5.2778703335        0.6913232432
 H         -6.4896376986        0.2940924156       -1.7409226929
 H         -7.8025493270       -0.8482455979       -1.3671741292
 H         -6.9935734515        0.0335677473       -0.0451877329
 H         -4.7586116725        0.7128865881       -0.2425787989
 H         -2.6011848519       -0.9484121788        1.1718779265
 H         -2.9601297057        3.5274337309       -1.2250761181
 H         -1.3805778537        3.9007659591       -0.5489050432
 H         -2.1567293285        1.1733768736       -1.7074705258
 H         -1.3876172939        2.4791423602       -2.6189558948
 H         -0.4622013200        2.0197097399        1.0852030158
 H          0.5620076765        2.4081395016       -0.9398063529
 H          1.6254133323       -0.6508730546        0.1445756037
 H          2.0437427958        1.0438741050       -0.1394204706
 H          2.5237614486        0.4392299707       -2.5665843032
 H          2.3736794081       -1.2639714894       -2.1113266811
 H          4.5861229886        1.5482386865       -2.2557202985
 H          6.8540939161        1.6100830862       -1.3720968306
 H          8.4913531007        1.7477961820        0.3275605802
 H          9.0407520089        0.7504277209       -1.0503457781
 H          9.7210256462        0.4836469609        0.5736845950
 H          6.0731787152       -3.7705118309        2.1478296729
 H          4.5687251099       -2.8295446398        2.0067539497
 H          5.1400229550       -3.8232000082        0.6330132187
 H          3.7961634857       -2.0367433022       -0.0859359678
 H         -0.6990508355       -0.6973139545       -2.5686131096
 H         -1.3738379745       -0.8663737989       -0.9331991840
 H          0.1422213864       -1.6657456193       -1.3499943911
 H         -4.4500335766        3.5893586663        0.4882521185
 H         -3.6738510409        2.4148327920        3.1891368449
 H         -4.8610842556        1.7344823877        2.0730643652
 H         -5.1738237010        3.2895713924        2.8469773078
 H         -2.4368022364        4.5555679981        2.5590476921
 H         -2.6886134368        5.2905948150        0.9653890550
 H         -3.9697242440        5.3375101092        2.1732269282
 H         -0.6262326450        2.4498519815        3.3608077600
