72
 energy: -99.685270167417 xtb: 6.6.1 (8d0f1dd)
N           -1.63922060031941        2.97049973921252        2.28836739240147
C           -1.61495988028057        2.22483075841342        1.27477704058686
C           -2.75698396497950        2.09331417595050        0.30258062799932
C           -3.31367847959469        0.67961929973985        0.37181397881525
C           -4.25257542999270        0.25533978036130       -0.57099235334256
C           -4.80430731151876       -1.01053848382482       -0.52193565786943
O           -5.73687413016002       -1.49539572228843       -1.39130532064078
C           -6.27869959680723       -0.62771336607174       -2.35335439166111
C           -4.40549593084956       -1.90822251193530        0.49319019871795
O           -4.99845419771250       -3.13603729285010        0.45670383840403
C           -4.70417734485715       -4.05291377876133        1.47832621988690
C           -3.47783585382651       -1.48735519002027        1.42700472738142
C           -2.94254279892510       -0.20531880979762        1.36724070004353
C           -2.16512610055842        2.36274648504911       -1.10820534491900
C           -1.31244663829214        1.21940989193424       -1.69571107780039
C           -0.00676099975825        1.07949560420817       -1.00621974023657
N            0.57866084290280       -0.12864987139303       -0.66620728478713
C            1.94448245983259       -0.14744901828862       -0.22348330473161
C            2.95733013655442       -0.68875329109699       -1.27182089354444
C            4.40535479830461       -0.40269545529968       -0.86493974691933
C            5.16585895134995        0.79560093852420       -0.97850876177703
C            6.46683309127650        0.78353299714890       -0.50532499119859
C            7.08595843800605       -0.28806632135591        0.07633551350706
O            8.37296858135223       -0.23485151615292        0.50893511562677
C            9.02494403496369        0.98745812086425        0.27355144659070
C            6.35264350480043       -1.47682596767018        0.21957542191507
O            7.06959702556628       -2.46685550628484        0.82550085120685
C            6.51568109895156       -3.72703843533761        1.08082131348661
C            5.04708818231828       -1.50709914422621       -0.24780746687723
C           -0.16770274413425       -1.35513693021805       -0.73353037626796
C           -3.92598682639287        3.08247109545450        0.57657703617641
C           -4.60657787773726        2.79092130303435        1.91295134577557
C           -3.49669346036438        4.54762616788175        0.53119541725753
H           -4.55756129407854        0.93421438878833       -1.35053575731374
H           -6.74145258387458        0.25115496200913       -1.89148921016817
H           -7.04413762468356       -1.20659469259879       -2.86848311920637
H           -5.52578361229012       -0.30216361214679       -3.07965606010361
H           -4.97420146095930       -3.66086164619079        2.46495513449818
H           -5.30993874854011       -4.93216301864100        1.26326975786154
H           -3.64571754106270       -4.33627623913131        1.47885161598298
H           -3.16357597096363       -2.14522838485918        2.22221283057691
H           -2.23954704871128        0.09775789076861        2.12774730784427
H           -2.98719216823855        2.57016177383816       -1.79690951812834
H           -1.54415450854343        3.25930698369475       -1.05646652877140
H           -1.88044910535734        0.29109671004504       -1.66251265165199
H           -1.15337598060893        1.46541323962340       -2.75938443616789
H           -0.73755878519846        1.64000162246565        0.95253004121103
H            0.66963902158158        1.91685303817458       -1.03606974201696
H            2.01175573229068       -0.74717467360114        0.69387125076091
H            2.24923930421175        0.87324407081171        0.00850698808766
H            2.71139474520307       -0.24384632855415       -2.23710742881340
H            2.77378760912413       -1.77074405358216       -1.36745097333805
H            5.17707473354414        1.85761149185496       -1.33387094582935
H            6.97259038534983        1.72326376556118       -0.63136764598573
H            8.53930961726637        1.81682880757732        0.80287521394199
H            9.05705767709853        1.22646521075641       -0.79685018065740
H           10.03267795853355        0.85287004120440        0.64999596797339
H            7.31037485827842       -4.28263518868104        1.58062531145701
H            5.64812199325122       -3.66621570809067        1.74558489056796
H            6.23988241324198       -4.24547447476976        0.15720334733251
H            4.50763238546296       -2.44497186789504       -0.13177351049399
H           -0.36148652199547       -1.65751849471754       -1.77019019831123
H           -1.13262674014238       -1.25550070844421       -0.22425935237776
H            0.39536578228551       -2.14712224723754       -0.24331172032394
H           -4.66478444344251        2.92346715974686       -0.21895303985295
H           -3.90551422144027        2.95589398113337        2.72393155416493
H           -4.95932752039017        1.76307254634186        1.95432114721149
H           -5.45959265976455        3.45356379307345        2.04408006684080
H           -2.75035227091659        4.73873659841706        1.29530337752006
H           -3.09128134051576        4.81764529305213       -0.44046093841477
H           -4.35964555491337        5.18203868947793        0.72366237321846
H           -0.78400353822169        2.98132883658347        2.84103336133669
