  25
        -42.15806187
 C          3.2766405569        1.0641032434        0.0027268065
 N          2.1803651791        0.1817800842       -0.0013154216
 C          3.4490453135       -0.4203961885        0.0037175131
 N          1.0705898714       -2.2725954760        0.0072687162
 C          0.2852184168       -1.2730794432       -0.0025128076
 C          0.8956814305        0.0500343940       -0.0059694771
 C          0.0766300504        1.2809867868       -0.0050161921
 O          0.5866110223        2.3791899046       -0.0100109999
 N         -1.2785089995        1.0661359255        0.0028192562
 C         -2.1638573223        2.2180840386        0.0096149098
 C         -1.9068988873       -0.1758633196        0.0004713800
 O         -3.1054953709       -0.2588730310        0.0036333368
 N         -1.0938656611       -1.3044055694       -0.0058803056
 C         -1.7592479788       -2.5966493132       -0.0047902506
 H          3.4528744653        1.6280571805        0.9133516559
 H          3.4396441256        1.6446308674       -0.8989154437
 H          3.7653910582       -0.9395234433       -0.8884642223
 H          3.7385760081       -0.9226072742        0.9206136333
 H         -1.5544539609        3.1189691894        0.0069530763
 H         -2.8097433235        2.1932902442       -0.8689790994
 H         -2.7985629442        2.1909817077        0.8962203254
 H         -1.4981334155       -3.1570510284        0.8946644745
 H         -1.4786786349       -3.1678714446       -0.8911949915
 H         -2.8341317652       -2.4243432663       -0.0167290745
 H          0.6933946146       -3.2095810581        0.0144728638
