25
 energy: -4.673631450766 xtb: 6.6.1 (8d0f1dd)
C            3.21185950912255        1.21008498038322        0.09246306417015
N            2.29962359022064        0.10619516286207        0.03472344197686
C            2.59221322472811       -1.24860133159872        0.04513060519896
N            1.39812161280144       -1.94294925343764        0.01543052713829
C            0.37219239248736       -1.06912335280193       -0.02922513513050
C            0.90376255052269        0.21604214611040       -0.01130523083766
C            0.08856294033812        1.35810699092271       -0.04632393930862
O            0.45280844261838        2.54008302079814       -0.05800028660999
N           -1.31612837095800        1.02560590629936       -0.07580684590283
C           -2.17532285984925        2.20393260169154       -0.02081537793259
C           -1.88574161669002       -0.21127125904913       -0.08472898248117
O           -3.09023372008801       -0.38281191500053       -0.09189823944952
N           -0.97556097911387       -1.30896918868161       -0.06421112923614
C           -1.44994942394459       -2.67222406793241       -0.07349667108841
H            3.72003812245560        1.30120018338413        1.06025794418590
H            3.97582722612394        1.12082002643846       -0.68727115508535
H            2.61499304070992        2.11235410294468       -0.05045736120324
H            3.56519326895223       -1.68555199200391        0.07447550595236
H           -1.47655865128849        3.03180317339804       -0.04074169214123
H           -2.87018128809428        2.26480439718471       -0.86728472195126
H           -2.77336282374260        2.22802910926871        0.88994216389885
H           -1.12107988266866       -3.21069679859292        0.82052793404893
H           -1.09032599717828       -3.19752980317286       -0.96139573646258
H           -2.53811734701209       -2.61720258450524       -0.08808507228435
H            1.33431638686269       -2.94747892004983        0.01175168830023
