25
 energy: 142.421895877001 xtb: 6.6.1 (8d0f1dd)
C            3.04869832275672        1.12584705620593        0.23328924696675
N            2.25869636805524       -0.07735825168693        0.10226380776479
C            2.64461218572691       -1.34145752769350        0.17411092818067
N            1.57060014344865       -2.15842348865470        0.02542900789320
C            0.42130308412697       -1.39261774127515       -0.10805129147330
C            0.90457197136821       -0.07118551637613       -0.05935749986763
C            0.00226877924586        1.02459845677082       -0.07013501997985
O            0.27259056332885        2.22239595243578       -0.09943121598587
N           -1.26527328198361        0.54733314949954       -0.03479840470634
C           -2.64269184603055        3.17472951779510       -0.09108073610340
C           -1.96671709896279       -0.48975879341168       -0.15899162186896
O           -3.24913328434764        1.89470127932243       -0.06243184634546
N           -0.83375306857001       -1.73641160308958       -0.22999996021963
C           -1.24838467802456       -3.09285681692470       -0.30393451716610
H            3.46911481748358        1.23698976274158        1.22540658327387
H            3.79824009501610        1.16058209229962       -0.51263180781371
H            2.45488709091896        1.98537268930644        0.07957173998977
H            3.60142147404822       -1.71132601256659        0.38809571049322
H           -2.58707054937089        1.66908757534948       -0.68129850785870
H           -2.93012525241313        3.60588739366738        0.78022064887599
H           -1.62461642045062        3.21406094764401       -0.54677630409119
H           -0.93180643103069       -3.61057055767947        0.59614466752854
H           -0.80221036656404       -3.53211205679136       -1.19121430461922
H           -2.33683198853073       -3.11534531272381       -0.39275256043952
H            1.63112957124917       -3.15450221678724        0.07498182557793
