25
 energy: 90.420924675949 xtb: 6.6.1 (8d0f1dd)
C            3.03689498543309        1.12779361937949        0.20259909787888
N            2.26689555637459       -0.07134849187263        0.12705334448315
C            2.71210748392983       -1.35510686306849        0.17346143154632
N            1.63534212297468       -2.20736204541033        0.06238877439332
C            0.50024544361712       -1.45905158075719       -0.08600047680535
C            0.89011063141055       -0.12408748642341       -0.02616458411830
C           -0.06161533468959        0.93911799391323       -0.08864746753311
O            0.08995577252360        2.16271691709402       -0.04857898793057
N           -1.36149695682256        0.45968288097069       -0.17337970821713
C           -2.75456842739150        3.45606486363312        0.05624456013006
C           -1.84919184988690       -0.76698753727287       -0.21787061145137
O           -3.22930721204569        2.28525160532402        0.00457859300212
N           -0.78621571977906       -1.83045653511303       -0.20598388447540
C           -1.17622271408751       -3.22076349882879       -0.30296166878318
H            3.57661003343299        1.14793123553280        1.14771711914913
H            3.79757750261945        1.14165376848668       -0.60357128630234
H            2.33092525713325        1.98357128844952        0.13740539226883
H            3.71081759033933       -1.64781822420392        0.28265764183740
H           -2.13186270771380        1.35308150292463       -0.12717545412300
H           -3.39496691208524        4.20938223698123        0.41906533512531
H           -1.66016746770218        3.68722364558468       -0.10733826410765
H           -0.86012298219015       -3.76779918537218        0.59433532235652
H           -0.75157583862665       -3.67135888473967       -1.19223819900300
H           -2.27618475824255       -3.20522793325349       -0.37166594602360
H            1.68773197187960       -3.21010165697234        0.06835466879698
