25
 energy: 128.311607960166 xtb: 6.6.1 (8d0f1dd)
C            3.09784721966904        1.14235207728124        0.21297937133424
N            2.24556591136585       -0.01423771957542        0.13353728357353
C            2.56033112718602       -1.31727318267567        0.08071945911402
N            1.39740571799097       -2.04733138618225        0.05235928970118
C            0.31202732243333       -1.19360579051393       -0.03133008050195
C            0.88348974843128        0.09192533503569        0.02912662450179
C            0.11591132368176        1.30430534882578        0.05782381023920
O            0.54709786293971        2.44301721333785       -0.00763493548222
N           -1.20413797896135        1.01203999217990        0.22719683108151
C           -2.26355889831599        3.00850371904547       -0.05513778222233
C           -2.03313838788861        0.06163472284613       -0.00942491851211
O           -3.19505086328122        0.21585420995451       -0.11035668916674
N           -0.98716794066258       -1.42588504846512       -0.21055869601400
C           -1.37025673804072       -2.78569049681322       -0.24380319814121
H            3.80466492943243        1.04692205366431        1.04054872593504
H            3.61154326704592        1.30278741838461       -0.74344418476873
H            2.47098346195126        2.02138471693558        0.42138820553131
H            3.51074912045823       -1.75383195842217        0.32791906120743
H           -1.74783340377664        2.38685336459841       -0.62643787803638
H           -3.13768534849742        2.61363124749820        0.15078966930906
H           -1.93580771698550        2.72781032882826        0.87956240126720
H           -1.00101958453872       -3.31858546077856        0.64645258923170
H           -0.90919840037842       -3.23086108195357       -1.12285977153385
H           -2.45709585304264       -2.84920916908064       -0.22426552949255
H            1.33936114387625       -3.04549912679396        0.02975786408341
