  25
        -42.15504562
 C          3.2804068131        0.6619224579        0.0207593499
 N          2.2430975684       -0.3324118838       -0.0032993126
 C          2.3963113967       -1.6558007211       -0.0164519980
 N          1.1821892257       -2.2577082326       -0.0146940658
 C          0.2243786017       -1.2803144901        0.0006298449
 C          0.8981744317       -0.0616524230        0.0077765015
 C          0.1399031187        1.1953816252        0.0038370452
 O          0.6677360816        2.2980164826       -0.0100438548
 N         -1.1863875873        0.9933206639        0.0106810885
 C         -1.6999354876        4.4982160513       -0.0130453096
 C         -1.8732554109       -0.1391704778        0.0043394071
 O         -3.0737758881       -0.2295017682       -0.0040309688
 N         -1.1067105731       -1.3916940651        0.0043846893
 C         -1.8062169037       -2.6512755262        0.0107452022
 H          3.7408224393        0.7074078528        1.0102700955
 H          4.0499684494        0.4273807181       -0.7141669170
 H          2.8360907612        1.6333550235       -0.2008189854
 H          3.3350361582       -2.1726820742       -0.0289900272
 H         -0.8086000120        3.8867968894       -0.0230891587
 H         -2.1487644480        4.8193709788       -0.9341693001
 H         -2.1559164564        4.7736420393        0.9193984693
 H         -1.5609417183       -3.2283658207        0.9045859948
 H         -1.5717797940       -3.2329601918       -0.8828125082
 H         -2.8735997446       -2.4233346856        0.0160435195
 H          1.0299662765       -3.2558057855       -0.0236745356
