25
 energy: -42.087859607408 gnorm: 0.003165175992 xtb: 6.6.1 (8d0f1dd)
C            3.28125593401295        1.19068416195647       -0.01913978052002
N            2.33811907986364        0.10517120929240        0.00094155540158
C            2.67170126052896       -1.18316242646302       -0.01032581566735
N            1.56555410000266       -1.94041158223257        0.03952563264199
C            0.43989234784443       -1.10679273669845        0.08601931253716
C            0.97356555823288        0.21234092368102        0.06209669334261
C            0.21911610581757        1.47063947676047        0.05419763284258
O            0.78802156289578        2.56895074426257       -0.02733509349716
N           -1.08992613378747        1.29155808539782        0.13187185534090
C           -2.04542301267325        2.30888734934695        0.13976239522605
C           -3.94772317449277       -1.12489537421305       -0.89622883594221
O           -4.28260291728070       -0.07992621130607       -0.63852673781771
N           -0.79432274442584       -1.45272922563768        0.13519077827434
C           -1.32062700929722       -2.75952238055453        0.15570698856804
H            3.76061615762862        1.29252082591992        0.95683540705470
H            4.04672396304997        1.00956987275529       -0.77255840057245
H            2.74942856982690        2.11813082923949       -0.24010422107919
H            3.67733856091164       -1.55597596957814       -0.05620112531119
H           -1.59317007545815        3.31029406412986        0.17798909368513
H           -2.66735732087650        2.23341750479052       -0.76077461287725
H           -2.70510515789027        2.17342111081885        1.00398973719231
H           -0.96564954910971       -3.33651873237841        1.01907227280314
H           -1.08146021459505       -3.31013739993763       -0.76228766894996
H           -2.40798778270157       -2.66784771736047        0.21643655551013
H            1.55045340607238       -2.94942786038966        0.03501799971115
