25
 energy: -42.137438581070 gnorm: 0.003098361519 xtb: 6.6.1 (8d0f1dd)
C            5.02718058024681       -0.00544902895034        0.30982383143110
N            4.08786298698277       -0.04872289756708       -0.73479154095484
C            2.85594896726613       -0.22459730935466       -0.74073246834133
N            2.03821337740658       -0.42990281854496        0.40171593563622
C            0.76959778429959       -0.61969918147629        0.39472226895686
C           -0.47496159960523       -0.33568004931285        0.13811334245341
C           -0.96494525465891        1.13277888544587       -0.00255064319274
O           -0.27956282204573        2.10973088213758       -0.01324881317618
N           -2.30631587823266        1.00401158593110       -0.12169570308397
C           -3.22128217120957        2.11365377359473       -0.27134892625623
C           -2.73701782051856       -0.32693907435387       -0.09270825863594
O           -3.85809947252635       -0.71829310766330       -0.19539171721815
N           -1.59862967649738       -1.10755609978669        0.06936080207897
C           -1.63871465475293       -2.54613561577048        0.11979966942448
H            5.79551261786473       -0.74974527653441        0.09014751059248
H            5.51707574022409        0.97044504552448        0.27102154295638
H            4.63475034024597       -0.17423651054661        1.32042437914770
H            2.31690690829716       -0.21807989993276       -1.67775721551778
H           -2.70253876727999        2.93934851214251       -0.75508105210392
H           -4.06621389190059        1.78356807232915       -0.87423971890697
H           -3.58629509926025        2.43878118248095        0.70463675661221
H           -1.19131784155164       -2.90690906017249        1.04689758259665
H           -1.10683944076950       -2.97790880487349       -0.72944258214462
H           -2.68532030196008       -2.84515958831814        0.07912837186346
H            2.53543690404075       -0.43906507483045        1.29436826368332
