25
 energy: -42.236346246960 gnorm: 0.007488358248 xtb: 6.6.1 (8d0f1dd)
C            3.70535276870160        0.75267545748059        0.01770379165789
N            2.57567305444153       -0.13838394021718        0.00575477335467
C            2.61742349946282       -1.47573851514718        0.00663393256454
N            1.35147830108041       -1.97053675927810        0.00367465494525
C            0.49118296586467       -0.91095236381971        0.00136622742915
C            1.25876177470234        0.24373847700284        0.00305020337893
C            0.62470892195351        1.56636302866493       -0.00877210547268
O            1.22871265201725        2.61561369513585       -0.01748268905912
N           -0.74453691666761        1.46422600093034       -0.01168626460483
C           -3.44379322606559        1.60722800660772       -0.00660813922109
C           -1.42834639923199        0.37139676001373       -0.00947726561283
O           -2.74172303322073        0.36715713273123       -0.01428802958184
N           -0.86758608195968       -0.90130245311284       -0.00407442858690
C           -1.63905890367607       -2.12664077642673       -0.00090373692748
H            4.24916739086413        0.66266093251562        0.95951409615241
H            4.38245897388051        0.51546084981281       -0.80358830615862
H            3.34207838730190        1.77652936331025       -0.08813596008443
H            3.50842806496252       -2.06803162815289        0.00812577528485
H           -2.75532520971452        2.44588164261327       -0.00936014409867
H           -4.07739744666313        1.63905570377878       -0.89090454308159
H           -4.06115611873351        1.63274005943313        0.88816538509069
H           -1.41217359171439       -2.71261741785466        0.89142720411410
H           -1.41833445116442       -2.71430330739746       -0.89371159225069
H           -2.69573605518992       -1.87401365948511        0.00238043799692
H            1.11017219287022       -2.94996774753731        0.00236834066945
