  25
        -42.18147415
 C          3.1949489492        1.0691553997        0.1508549881
 N          2.3745130697        0.1108592042        0.0186320222
 C          2.1600778215       -2.6098785994       -0.3042286341
 N          0.9252154618       -2.3073932137        0.0808572816
 C          0.3125923195       -1.0759085215        0.0383524004
 C          1.0229248310        0.1321601260        0.0201725622
 C          0.2953876378        1.4012228104        0.0056123896
 O          0.8429911747        2.4869645706        0.0200082267
 N         -1.0845793191        1.2943528445       -0.0278429822
 C         -1.8688349424        2.5153029881       -0.1007723727
 C         -1.8005578694        0.1192631469        0.0030969288
 O         -3.0055084695        0.1053294785       -0.0213993091
 N         -1.0589961741       -1.0646445502        0.0635740574
 C         -1.8242757435       -2.2985398043        0.0536731049
 H          2.7820070769       -1.8573926734       -0.7699428641
 H          4.2486776435        0.8502397789        0.0594897752
 H          2.8963101025        2.1024654507        0.3293161605
 H          2.5221783154       -3.6101183155       -0.1449916861
 H         -1.1832882611        3.3593238324       -0.1494503154
 H         -2.5047455327        2.4901114124       -0.9868091727
 H         -2.5095672221        2.6006851584        0.7778820601
 H         -1.7246004614       -2.8363866235        0.9991023686
 H         -1.5320723504       -2.9319826248       -0.7847162738
 H         -2.8739378283       -2.0241636804       -0.0650853832
 H          0.3571623978       -3.0554976172        0.4659026003
