  25
        -42.13618047
 C          3.6576717657        3.5538217219        0.0690753055
 N          2.2422441729       -0.4286550798       -0.0241537253
 C          2.3445097392       -1.7233247242       -0.0167514180
 N          1.1202851566       -2.3390233639       -0.0067126067
 C          0.1962078380       -1.3459801061       -0.0078961563
 C          0.9178622167       -0.1443925672       -0.0193717180
 C          0.2332719272        1.1276558126       -0.0165135742
 O          0.7536769436        2.2211990146       -0.0245391817
 N         -1.1539218174        0.9734118709        0.0007551861
 C         -1.9677805672        2.1779351833        0.0150649059
 C         -1.8751986563       -0.2086546390        0.0037743359
 O         -3.0772399278       -0.2197742672        0.0108129678
 N         -1.1456484959       -1.4093135579        0.0004051459
 C         -1.8623836731       -2.6666463796        0.0036645868
 H          4.0862384388        3.8662779955        1.0008522924
 H          4.2498153679        3.5995980499       -0.8279574554
 H          2.6415565517        3.2007011377        0.0318517321
 H          3.2718765275       -2.2598808895       -0.0180581798
 H         -1.3034650642        3.0385887273        0.0112778409
 H         -2.6183316489        2.1978328479       -0.8597658777
 H         -2.5973787554        2.1886732603        0.9054034879
 H         -1.6089938162       -3.2462769574        0.8923123097
 H         -1.6256968874       -3.2411357732       -0.8929613960
 H         -2.9284459941       -2.4419686666        0.0142055629
 H          0.9523136047       -3.3339971642        0.0035751063
