  25
        -42.13731963
 C          3.0692569961        0.8547193575        0.7876807077
 N          2.3254766134        0.1293527265       -0.2773658163
 C          2.6212981610       -1.3228827269       -0.2463664811
 N          1.4474702531       -1.9126218399       -0.1194658864
 C          0.3758207245       -1.0280605278       -0.0739924488
 C          0.8855541587        0.2370332838       -0.1715570771
 C          0.0623874659        1.4156949388       -0.1591453337
 O          0.4626211972        2.5532874876       -0.2349982888
 N         -1.2879517354        1.0749181599       -0.0407815130
 C         -2.2535059863        2.1642608156       -0.0208214978
 C         -1.8344728365       -0.1897204597        0.0653067023
 O         -3.0122106415       -0.3782507142        0.1696066040
 N         -0.9317155587       -1.2847805431        0.0454709334
 C         -1.4638347980       -2.6290465090        0.1597303168
 H          2.7694950278        0.4712792016        1.7599683083
 H          4.1368750290        0.6956322445        0.6510011286
 H          2.8329482178        1.9164294523        0.7245893695
 H          2.6753113217        0.5281867639       -1.1701409757
 H         -1.7075712514        3.1007210014       -0.1083494384
 H         -2.9529240678        2.0537684576       -0.8495542810
 H         -2.8198028711        2.1405040525        0.9101492804
 H         -1.0846401912       -3.1166549682        1.0583233735
 H         -1.2123406250       -3.2180907535       -0.7226648958
 H         -2.5479867398       -2.5454071827        0.2326418352
 H          1.3688964758       -2.9199964843       -0.0600564483
