72
 energy: -99.291785824099 gnorm: 0.001141101659 xtb: 6.6.1 (8d0f1dd)
N           -1.89115093915625        2.80079269631155        2.22629652716919
C           -1.84137747666367        2.12864742607020        1.17626518262660
C           -2.99486260988041        1.92146237162955        0.23400483725549
C           -3.47020588703860        0.47846021274779        0.31937904228662
C           -4.42091200324387        0.00910829711146       -0.58922927256842
C           -4.89835114520146       -1.28986042653895       -0.53194470401773
O           -5.82396871916221       -1.81695265779533       -1.35719768975963
C           -6.45764601683940       -0.98971344820563       -2.30487783946415
C           -4.39954825455209       -2.17618047656355        0.46226056869485
O           -4.91024510036113       -3.42178760316952        0.43540909639044
C           -4.52418262811795       -4.34529443214066        1.42673000756163
C           -3.45638777025309       -1.70350295393834        1.36103399496415
C           -3.00166076474867       -0.39236044962725        1.29152257161509
C           -2.44593549676175        2.21211320119859       -1.18735446977221
C           -1.51519105091521        1.12003509417601       -1.74579192548558
C           -0.18136909254384        1.09300415124852       -1.10509350034619
N            0.46417387507838        0.00207394976933       -0.71837071236411
C            1.83890786900497        0.07414829390957       -0.28300048004481
C            2.81491150793326       -0.40638116974868       -1.37681710867438
C            4.22148782487184       -0.33215058377896       -0.86123820282271
C            4.96257102811297        0.84960621247369       -0.97957807290036
C            6.22704879281359        0.94632115477997       -0.47019313570998
C            6.86408997739316       -0.14335154828972        0.21514562134348
O            8.00124667659925       -0.06495220534833        0.69175680976278
C            9.83306999976383        3.08696407299041       -0.12046341645109
C            6.06509310154614       -1.37460744466496        0.31360233505395
O            6.68989307224888       -2.37665977909807        0.93789782720174
C            6.05294760443752       -3.62416734913127        1.07785589252776
C            4.78664874255167       -1.42665542452648       -0.21154211172495
C           -0.14829596071375       -1.30476103543549       -0.75542927110923
C           -4.20459322845607        2.85594768132268        0.53684305631298
C           -4.84181932732594        2.52626380327232        1.88447685822430
C           -3.84486350971359        4.33801357994380        0.48414118916120
H           -4.80584131778814        0.67523003817438       -1.34324028429924
H           -6.96492697808825       -0.14724085706940       -1.82536033202909
H           -7.19505276229045       -1.62141628972406       -2.79609845205987
H           -5.74940145689440       -0.61595995978027       -3.05136836130780
H           -4.77114882551198       -3.98408783937642        2.42925397261440
H           -5.09183111985628       -5.25018334515238        1.21922306879212
H           -3.45397447855031       -4.56891747920182        1.37155088457077
H           -3.07500632134490       -2.34654600651715        2.13755721196281
H           -2.29230983801572       -0.05258168868979        2.03024469817520
H           -3.28633770787094        2.31996753593761       -1.87195459551214
H           -1.91079496780799        3.16222007692277       -1.17086212223834
H           -2.01076663854646        0.15251862346022       -1.68804889770778
H           -1.35968856785180        1.35321178816154       -2.80714048435854
H           -0.91986890961379        1.64025156916919        0.80063110501659
H            0.37770693450155        2.01752665658697       -1.08407297667085
H            1.96388213296714       -0.54604504764876        0.60892886171489
H            2.08403353379072        1.10475037519146       -0.01879077748499
H            2.70004760932850        0.23021503924947       -2.25574681573025
H            2.57124508265894       -1.43215004754526       -1.65659176574215
H            4.52879909013444        1.69591570703499       -1.49295141045501
H            6.80346780659318        1.85331336982018       -0.56313374709590
H            9.17535027957535        3.72137891404877        0.43549715299608
H            9.72035488520321        2.99247386544114       -1.17986532774891
H           10.61355582665689        2.55737093129419        0.38221943487302
H            6.76673265950071       -4.26432267932789        1.59213529083881
H            5.14140298553595       -3.54159818510010        1.67862335208150
H            5.81013364042003       -4.05901353673362        0.10329055231300
H            4.20957831814555       -2.33683773107212       -0.13302214624057
H           -0.31032096552594       -1.63623285254175       -1.78316032050310
H           -1.10904078596108       -1.29070412115894       -0.23467660411724
H            0.50291023607360       -2.01983911619722       -0.25935709949682
H           -4.94925424352486        2.66224878950365       -0.24343287175954
H           -4.13813919517435        2.72236937262142        2.68702187743979
H           -5.14871201963971        1.48420220513578        1.93065170151428
H           -5.71998371560002        3.14880583710504        2.03377389864677
H           -3.08398036129238        4.57000231905966        1.22306058470585
H           -3.49319889598647        4.63651274526504       -0.49994700350933
H           -4.72890320121417        4.92703403934624        0.71346300583555
H           -1.04372524084713        2.89667329585579        2.77646107963704
