25
 energy: 0.000000000000 xtb: 6.6.1 (8d0f1dd)
C            3.23720163006194        1.16630919979326        0.08434469647475
N            2.29877817382611        0.07527477071623        0.03981603040599
C            2.58028210190900       -1.21425402444508        0.03006176031096
N            1.43813958087363       -1.93419271955128        0.00098261760884
C            0.39035688448383       -1.05887472636071       -0.00790371836672
C            0.93510056364412        0.21347819449412        0.01709077491437
C            0.09450143893243        1.40504303904423       -0.00410947031874
O            0.49712751527797        2.54126714362870       -0.00342325688240
N           -1.25076640035757        1.06271879480407       -0.03085478223738
C           -2.21907211982101        2.15522099834493       -0.05001256985998
C           -1.81739487048744       -0.20012725993278       -0.04692818574614
O           -2.99983886758376       -0.37846417018721       -0.07008878229737
N           -0.92618586207120       -1.30210215599479       -0.03682761578324
C           -1.46982264913417       -2.64643102187190       -0.06029820460571
H            3.71247264356769        1.21471455160235        1.06488849150277
H            4.00791497605742        1.03430808813993       -0.67357694370751
H            2.69910007168542        2.09770118228144       -0.09130154882931
H            3.56654120610678       -1.63682992603973        0.04233140067262
H           -1.67107961066214        3.09322851271934       -0.02552706933167
H           -2.82428953597071        2.09428624779827       -0.95318082946668
H           -2.87644029173232        2.07745725625962        0.81450067533302
H           -1.17061996399332       -3.19584890659852        0.83242232437030
H           -1.14560257411436       -3.17511610292205       -0.95688275822323
H           -2.55549792440841       -2.55659984320617       -0.07459039797972
H            1.38130855184625       -2.94313852034425       -0.01389874181052
25
 energy: -3.162447864590 xtb: 6.6.1 (8d0f1dd)
C            3.24895048392624        1.17833907568757        0.07972542213668
N            2.30725598504118        0.09907779438259        0.03938309591636
C            2.60244145837000       -1.22561989344882        0.03249681737801
N            1.43130077785345       -1.93670556742364        0.01392407624151
C            0.38720203362390       -1.05793729202221        0.00019116009368
C            0.92672060596078        0.21879801335865        0.02104299172824
C            0.09609965554169        1.38668226433845        0.00673836284760
O            0.50559083028141        2.54974114222758        0.01569757177673
N           -1.27545672452703        1.04115206433515       -0.04569040161364
C           -2.20766307717407        2.16097753376118       -0.02386749730013
C           -1.88137822094286       -0.21314684271212       -0.15671814612097
O           -3.08605831779374       -0.37486520124125       -0.23756977985948
N           -0.95384627025312       -1.30399580836678       -0.04348348793509
C           -1.46356069754265       -2.65508358442428       -0.03135128682064
H            3.73190605700227        1.22731442902017        1.05946540828865
H            4.01689172319676        1.03714989727054       -0.68307920655016
H            2.70896629997756        2.10570931399405       -0.09921566852063
H            3.58525007298738       -1.64406626383822        0.03547188539893
H           -1.64533791261882        3.09377326470153        0.01674738288173
H           -2.81361058140809        2.12394393433334       -0.92606426764362
H           -2.85709622138911        2.07794680775569        0.84658425859833
H           -1.11871766510429       -3.20720045275777        0.84688814439856
H           -1.16517431141958       -3.18079498606018       -0.93867287143127
H           -2.54708561147000       -2.57092579566599        0.00125170166133
H            1.37862429581699       -2.94123524503324       -0.00286176940340
25
 energy: 9.157424843168 xtb: 6.6.1 (8d0f1dd)
C            3.26475795581807        1.18934973487452        0.07173892252644
N            2.31288440140280        0.12713217098071        0.03886304219981
C            2.62304904785782       -1.23501752605671        0.03805288237128
N            1.41976286193476       -1.93294759960621        0.03204671411181
C            0.37840585102749       -1.05584131739326        0.01766443406527
C            0.91360231168204        0.22442452742485        0.03077690033130
C            0.09695588710401        1.35609702790878        0.02202240686959
O            0.50750695058140        2.54187359936711        0.04170941042556
N           -1.31344524991982        1.00960705853654       -0.06258860597362
C           -2.18882158823932        2.17339528303948        0.01877638528132
C           -1.97875292877054       -0.23423450001858       -0.32795922078886
O           -3.19467964754018       -0.36654802796342       -0.54153986924641
N           -0.99396503884522       -1.30265318320673       -0.04848156471262
C           -1.45064156776711       -2.66748510744804        0.01580064921667
H            3.76087678973033        1.24383437504156        1.04821414541263
H            4.03028557178826        1.03817748981756       -0.69618481566968
H            2.72940361085048        2.11706548348579       -0.11100827998261
H            3.60405247831503       -1.64307847114045        0.02622004537268
H           -1.60536346272434        3.09716019692439        0.08320227993151
H           -2.80311834379104        2.17878026416271       -0.87691856171101
H           -2.82155207972870        2.08481357859871        0.90215329813144
H           -1.02089105844301       -3.22406915867998        0.86425960013227
H           -1.21199394143332       -3.19337942877865       -0.91285485363932
H           -2.53186302868458       -2.60214468146816        0.13960813042084
H            1.38575888573099       -2.93528318623060        0.01346042107103
25
 energy: 29.472965636012 xtb: 6.6.1 (8d0f1dd)
C            3.27635945849802        1.19350987267047        0.06959930693446
N            2.31211585787472        0.14175173914477        0.04330811723622
C            2.62819228658476       -1.23745597832335        0.05008243643125
N            1.41148231882672       -1.92843439938345        0.04370597753406
C            0.36593864310486       -1.05657005147819        0.01580447791036
C            0.90402258111735        0.22410044673871        0.03368384038510
C            0.08764622487291        1.33857252296046        0.01932132136708
O            0.49733635130758        2.53176556889217        0.06128654023654
N           -1.35068562486286        0.98718309920460       -0.09446584573195
C           -2.17472101492308        2.18727195841591        0.05981058200332
C           -2.05768571157783       -0.25046122639799       -0.49956213166082
O           -3.26271612872912       -0.35804058579695       -0.80867651333412
N           -1.02750495241057       -1.30033307199575       -0.07373075834701
C           -1.43832278778729       -2.67960919655900        0.05915019409736
H            3.78233468666438        1.25482777730915        1.04255500900541
H            4.04193523454936        1.03359445991973       -0.69906714918160
H            2.75361862318431        2.12764214102540       -0.11822509522656
H            3.61327343919612       -1.63479315007979        0.02719786025214
H           -1.56646452462510        3.09753102918584        0.14939773582479
H           -2.80218050912704        2.24597459368882       -0.82443619872533
H           -2.78308601332647        2.09099429151854        0.96102910524246
H           -0.91340448351765       -3.22864962646259        0.87321155134938
H           -1.27481918758729       -3.21385512625196       -0.88718851334693
H           -2.51254844118854       -2.64549694529846        0.29243700648870
H            1.40209834181806       -2.93199154047520        0.03080503940305
25
 energy: 43.345578840821 xtb: 6.6.1 (8d0f1dd)
C            3.28112043298394        1.19142950409919        0.07652195101481
N            2.30593013863096        0.14376383679257        0.05279791164078
C            2.62105343303776       -1.23214897574766        0.06649230637260
N            1.40913603772446       -1.92477129143593        0.04207777288350
C            0.35351921038713       -1.05989143710621       -0.00769581149223
C            0.89886376606429        0.21865987690859        0.02640000468809
C            0.07325355670631        1.33455010090487       -0.00437607736213
O            0.48563445794929        2.51935823387673        0.06098074959618
N           -1.37971789817822        0.97731716967259       -0.13584484692186
C           -2.16689396385982        2.19634945043383        0.08931241877539
C           -2.11114090312086       -0.25943869836714       -0.62514471395664
O           -3.28918670820138       -0.34724164144361       -0.97752744618324
N           -1.04832597126516       -1.29979213263658       -0.11258133629782
C           -1.42766500594624       -2.68723901734122        0.08952418909206
H            3.78965969416511        1.25670285136253        1.04783230524548
H            4.04922372223779        1.02388400341730       -0.68857535003566
H            2.77428786551590        2.13426550193136       -0.11694072975268
H            3.61333623159350       -1.61946535860103        0.03829200722995
H           -1.53854537689427        3.09304961982059        0.19791826416203
H           -2.81226816473504        2.30861740323532       -0.77575248638549
H           -2.74567533152806        2.08970266838662        1.01063296136168
H           -0.82608290146199       -3.21883710356512        0.86653822152238
H           -1.34104635937237       -3.23889002318707       -0.86098868034484
H           -2.48155865312826       -2.67996654266893        0.42436369074762
H            1.42530335863149       -2.93093939656975        0.04277662054741
25
 energy: 46.775147309919 xtb: 6.6.1 (8d0f1dd)
C            3.27796923526388        1.18582435109880        0.08422486539501
N            2.29617541231698        0.13735612058940        0.06221076185082
C            2.60676423950592       -1.22050172096273        0.07973627112228
N            1.41143334890524       -1.92237769610681        0.03232209152502
C            0.34449803216265       -1.06407575530710       -0.02825436076080
C            0.89651564076771        0.21161333758274        0.01893871015305
C            0.06263281158763        1.33848442278957       -0.02590190277696
O            0.48100327913120        2.50579171877656        0.04634440520415
N           -1.39064026510515        0.97993568598898       -0.15883559984949
C           -2.16383010158927        2.19578637652912        0.10311750079331
C           -2.13262859967838       -0.26079241508994       -0.66680210148020
O           -3.28236966823498       -0.33480126892344       -1.07838724370595
N           -1.05185446961114       -1.30324897200909       -0.13417358359257
C           -1.42182989423492       -2.68758551867526        0.10531974488023
H            3.78425193570201        1.25066525772893        1.05551490904077
H            4.04800577907672        1.01256997761600       -0.67685980590118
H            2.78342169894277        2.13508449183090       -0.11259027185706
H            3.60567984161628       -1.60093099684859        0.04519192378690
H           -1.52767763817932        3.08430792467556        0.21663900019733
H           -2.82574426600552        2.34315648405320       -0.73920155926604
H           -2.71939064853935        2.08063724382594        1.03814100765417
H           -0.78091639888775       -3.20598091061017        0.84509070661584
H           -1.39221762532977       -3.25443726424381       -0.83578517549544
H           -2.44413057658637       -2.68724061308212        0.50438624709039
H            1.44709356493920       -2.93021165905479        0.04664735552376
25
 energy: 43.358967851712 xtb: 6.6.1 (8d0f1dd)
C            3.27056471178520        1.18077944810228        0.09171912710406
N            2.28711756209816        0.13014951265618        0.06829778700569
C            2.59398753049330       -1.20988341823587        0.09109858342427
N            1.41320321277056       -1.92196509836040        0.02127515491009
C            0.33968161658775       -1.06617782203523       -0.04612642657077
C            0.89406648083292        0.20730744805512        0.00753416136491
C            0.05807563601164        1.34250511200505       -0.04351583210294
O            0.48104617575600        2.49834125454464        0.03999398882078
N           -1.38586077202675        0.98834114078684       -0.17245198898704
C           -2.16333029315058        2.19188519817929        0.10367530615928
C           -2.12746540680117       -0.25709260970171       -0.66508625769986
O           -3.25394432130267       -0.32468067280601       -1.10163682676515
N           -1.04378416959047       -1.30904269947272       -0.14880401741140
C           -1.42204893153499       -2.68590281209161        0.10861287108866
H            3.77069398180711        1.24309879672084        1.06531718239650
H            4.04302348158287        1.00368493845470       -0.66498450039793
H            2.78084034383854        2.13139356412177       -0.10781016678776
H            3.59517593640639       -1.58940039921845        0.05233904867578
H           -1.52823750206459        3.07951604362328        0.21475967372757
H           -2.83612630319469        2.35372996274837       -0.72314128733491
H           -2.70927899414888        2.07032610720612        1.04241025964289
H           -0.74415336764753       -3.19947179786890        0.81526170891744
H           -1.43682176114266       -3.25682425231036       -0.82827010804940
H           -2.42016879943474       -2.68231454304762        0.55952335325978
H            1.45595862000555       -2.92927379988370        0.04704310175682
25
 energy: 40.547909929819 xtb: 6.6.1 (8d0f1dd)
C            3.26557707026061        1.17986171518502        0.09138082623785
N            2.28314305261227        0.12806237735722        0.06965334540841
C            2.58983762763116       -1.20548127542532        0.09876488205612
N            1.41393556159738       -1.92292411018057        0.01762753737109
C            0.33905575248314       -1.06643261947650       -0.04715103144619
C            0.89198353591806        0.20668849377918        0.00330184884464
C            0.05642047399401        1.34325371949286       -0.04305120386337
O            0.48053016721233        2.49826542008281        0.04536383851261
N           -1.37728152728195        0.99382215317729       -0.17367658015202
C           -2.16367793422039        2.18906570453084        0.10237979485518
C           -2.11494482603484       -0.25365365873793       -0.64738266683479
O           -3.23282576872735       -0.31954965651053       -1.13107536777923
N           -1.03486120597260       -1.31393315410726       -0.15158632862174
C           -1.42346600646852       -2.68556005685952        0.11038542645732
H            3.76328627274460        1.24099834141134        1.06606937717079
H            4.03821191226197        1.00042840276571       -0.66416865519458
H            2.77515043084867        2.12916898019638       -0.10895574817726
H            3.59016708901842       -1.58740953531690        0.05127568342839
H           -1.53056278667356        3.07871569310234        0.21159222479207
H           -2.84248769829608        2.35270545966160       -0.71892775368698
H           -2.70732444220098        2.06419983085171        1.04166001544686
H           -0.73625660874892       -3.20059308981121        0.79709810099349
H           -1.46210008969690       -3.25737740057012       -0.82166523304397
H           -2.40474429036431       -2.67422641657187        0.58083903580441
H            1.45544890604003       -2.92906671585473        0.04728252756823
25
 energy: 37.887760508077 xtb: 6.6.1 (8d0f1dd)
C            3.26324811523765        1.18042641532899        0.09254152960432
N            2.28183474333886        0.12846918982809        0.06975242105099
C            2.58988073275430       -1.20486645576844        0.10644684554210
N            1.41329054566331       -1.92377816909881        0.01640355116897
C            0.33935238487006       -1.06555616050409       -0.05112817191998
C            0.89036246739598        0.20745201727198       -0.00292652540615
C            0.05437220537069        1.34144939175233       -0.04444311312881
O            0.47838517570208        2.49901251576368        0.05342594699782
N           -1.37154179381195        0.99676435676563       -0.18036658214611
C           -2.16460628636959        2.18902234069321        0.10043926652628
C           -2.10504074200251       -0.25103513660299       -0.64859855025328
O           -3.21518055005033       -0.31852524264871       -1.12202600110005
N           -1.02915390169246       -1.31677067644027       -0.16263300751456
C           -1.42545128107012       -2.68606757729002        0.10997263448142
H            3.75909218520134        1.24129766510711        1.06830116214884
H            4.03702224361517        1.00040323224269       -0.66158470226533
H            2.77140087747208        2.12851536326199       -0.10841887733793
H            3.58827215273977       -1.58998871545989        0.05234992519151
H           -1.53280538672117        3.08074892343274        0.21016749959774
H           -2.84499790448198        2.35030232697578       -0.72104155112930
H           -2.70829568417603        2.06041438160175        1.03924534016404
H           -0.72547866978485       -3.20317985367101        0.78324127878292
H           -1.48452450513132       -3.25685908412839       -0.82177514258034
H           -2.39802696888062       -2.66941412749967        0.60024906337621
H            1.45080451274795       -2.92920831874180        0.04943965629604
25
 energy: 37.445617644107 xtb: 6.6.1 (8d0f1dd)
C            3.26413174286691        1.18159191382394        0.09150929098456
N            2.28312986280824        0.13010940660821        0.06927713789582
C            2.59262244700045       -1.20678491138034        0.11045771402153
N            1.41264672349384       -1.92401439625742        0.01883749247039
C            0.34025529837532       -1.06491172788835       -0.04754504023672
C            0.89051384372829        0.20831215178648       -0.00156435522640
C            0.05295828834233        1.33930494756528       -0.03803459517671
O            0.47643563795952        2.49916413556334        0.05783537182238
N           -1.37046787899832        0.99660430833586       -0.17851806885655
C           -2.16559446662745        2.18932731856252        0.09950843184539
C           -2.10197003338999       -0.24995013599926       -0.64859976578445
O           -3.21214472485480       -0.31915360830455       -1.12517281589128
N           -1.02874555051522       -1.31708366048399       -0.16658602733506
C           -1.42707804105198       -2.68581303214109        0.10916727350647
H            3.76147327142271        1.24309146876788        1.06669769149171
H            4.03742950205307        1.00240791293002       -0.66344978127124
H            2.77116047487584        2.12945166574887       -0.10861768506096
H            3.58961160254241       -1.59338668395500        0.04744869802434
H           -1.53442682849840        3.08166619242038        0.20877013107591
H           -2.84340709515405        2.34441764688055       -0.72501936558121
H           -2.71033744570394        2.06080775465015        1.03760230436219
H           -0.72291279783221       -3.20594332702921        0.77733694337265
H           -1.49320904966136       -3.25364672257250       -0.82280256723416
H           -2.39707847822990       -2.66696860610769        0.60696648985146
H            1.44721836298496       -2.92957140935221        0.05152899307728
25
 energy: 36.918559726591 xtb: 6.6.1 (8d0f1dd)
C            3.26543405132239        1.18272274007758        0.09068292562244
N            2.28479963904764        0.13152197517098        0.06939148674375
C            2.59560469740123       -1.20863446135041        0.11613757119488
N            1.41256074389632       -1.92388691881530        0.02210852150014
C            0.34159881725843       -1.06464597958150       -0.04287636414219
C            0.89153678503469        0.20868730632036        0.00069968777390
C            0.05098186376441        1.33701395147001       -0.03242604390856
O            0.47368886315761        2.49844532004014        0.06078029030210
N           -1.37009872916409        0.99553919162672       -0.17689024715826
C           -2.16695756296418        2.18946022088232        0.09895897466620
C           -2.09847379668336       -0.24925156454091       -0.64972655105882
O           -3.20917728865839       -0.32064335325684       -1.12575015730739
N           -1.02853061678350       -1.31735190311345       -0.17158797402037
C           -1.42851580550603       -2.68528242177738        0.10852270057306
H            3.76506835603401        1.24508796408309        1.06482974973640
H            4.03780841643590        1.00482236884504       -0.66575667402836
H            2.77166164661305        2.13072329380594       -0.10842599011264
H            3.59121606150049       -1.59584826822529        0.03845897318541
H           -1.53590583745166        3.08170794400706        0.20807288213311
H           -2.84338617122554        2.34000354016087       -0.72884802417863
H           -2.71183794832248        2.06165380098914        1.03709308995949
H           -0.72823101105603       -3.20676094180484        0.77352706299486
H           -1.49967319825407       -3.25274230496421       -0.82011274032728
H           -2.39362108784086       -2.66344597283484        0.60616731687869
H            1.44466378038029       -2.92986692504235        0.05400342912541
25
 energy: 36.725953979916 xtb: 6.6.1 (8d0f1dd)
C            3.26569833194702        1.18274556307899        0.09191681863051
N            2.28508892688078        0.13167753525632        0.07037883128310
C            2.59609473388850       -1.20902230604666        0.12003613247340
N            1.41263928131923       -1.92371868874305        0.02230988821064
C            0.34193511522894       -1.06478181238192       -0.04292614904978
C            0.89211455722209        0.20847940716762        0.00131931103515
C            0.05050815537286        1.33657778704421       -0.03208727045910
O            0.47335570803501        2.49791217245230        0.06013003032543
N           -1.37035325888280        0.99484444468273       -0.17594209890666
C           -2.16726526521266        2.18916333180753        0.09804468564623
C           -2.09772231682004       -0.24907916462257       -0.64885627700964
O           -3.20907664459646       -0.32068405309983       -1.12644274851027
N           -1.02880925980465       -1.31724051631216       -0.17463347073884
C           -1.42905326969560       -2.68465081797991        0.10748412904632
H            3.76561573806431        1.24508391088756        1.06589021198046
H            4.03797522531096        1.00515870380434       -0.66484804715165
H            2.77207051315055        2.13093085368394       -0.10715454367246
H            3.59126312084157       -1.59556140082839        0.03425118967462
H           -1.53636637726071        3.08123529119489        0.20624677357076
H           -2.84344562089318        2.33842488917927       -0.73031474599340
H           -2.71208625000028        2.06233238143412        1.03618109489841
H           -0.72168952059476       -3.20693172382358        0.76886845923054
H           -1.50805372592986       -3.25161099822843       -0.82272370298872
H           -2.39300266573559       -2.66238827506485        0.61543344394893
H            1.44477943610106       -2.92986791237060        0.05447195067334
25
 energy: 36.607917443954 xtb: 6.6.1 (8d0f1dd)
C            3.26536188374267        1.18239078856329        0.09265212498854
N            2.28460228360482        0.13132419285275        0.07102679135492
C            2.59532045169754       -1.20878209247822        0.12252966024045
N            1.41263051805473       -1.92360418420274        0.02172328277667
C            0.34178049595242       -1.06495162562385       -0.04408238889324
C            0.89219055934722        0.20824496433040        0.00098622208988
C            0.05074752530943        1.33706727710081       -0.03381967614319
O            0.47376879965568        2.49777997825361        0.05907448240910
N           -1.37066723754080        0.99444780829908       -0.17598333955983
C           -2.16710373700542        2.18895029558995        0.09796961861833
C           -2.09742525965723       -0.24921076204188       -0.64888315136168
O           -3.20936641561417       -0.32061108824590       -1.12469341283435
N           -1.02903444256084       -1.31704125585410       -0.17545587458406
C           -1.42900368674909       -2.68424028550275        0.10743350140576
H            3.76499232815038        1.24453753732168        1.06667940656779
H            4.03773941895839        1.00451038336064       -0.66400460445316
H            2.77215511433996        2.13069248419879       -0.10675026878927
H            3.59047243746384       -1.59437142762743        0.03186755171370
H           -1.53609794588714        3.08086937752508        0.20589560459371
H           -2.84344896046592        2.33880182535367       -0.72983799800592
H           -2.71187529004857        2.06226521270541        1.03610601169834
H           -0.72079750823148       -3.20613529895336        0.76826631495894
H           -1.50814816030612       -3.25167033083518       -0.82173382865543
H           -2.39212133547615       -2.66249074400085        0.61586406791294
H            1.44554283120212       -2.92974442791700        0.05420379809841
25
 energy: 36.159304059664 xtb: 6.6.1 (8d0f1dd)
C            3.26480841018677        1.18195627189374        0.09426182996787
N            2.28383908044868        0.13100267954341        0.07264278232164
C            2.59423309807136       -1.20864335811413        0.13201763535365
N            1.41257895715701       -1.92334547280683        0.02096421624777
C            0.34190505937341       -1.06508823789875       -0.04657342784407
C            0.89249685509807        0.20804480103807        0.00014109280957
C            0.05133498216283        1.33782579537123       -0.03661372188465
O            0.47424313706093        2.49769969423154        0.05719602563424
N           -1.37115284909356        0.99300269703719       -0.17581311958133
C           -2.16697920929436        2.18814622449428        0.09746060681752
C           -2.09533305145186       -0.24967745674357       -0.64946690388546
O           -3.20929598685800       -0.32119401393336       -1.12058008811656
N           -1.02912902078771       -1.31662262088354       -0.17868749197514
C           -1.42882579273205       -2.68324122973321        0.10698392736417
H            3.76397801875217        1.24393213252695        1.06834464827370
H            4.03736174275675        1.00343454355388       -0.66221852147250
H            2.77225179544767        2.13034445057682       -0.10590055249504
H            3.58891433674106       -1.59201539727855        0.02308570887445
H           -1.53559390824675        3.07976252500058        0.20533879476028
H           -2.84371050415882        2.33924216941151       -0.72979767910226
H           -2.71177037377223        2.06177144743789        1.03562683184231
H           -0.71971724023057       -3.20435052536224        0.76566969179978
H           -1.51194881604816       -3.25251087257008       -0.82024816739557
H           -2.38895510727516       -2.66101485098800        0.61874080450943
H            1.44668105462879       -2.92943279363297        0.05445897332355
25
 energy: 35.896434049229 xtb: 6.6.1 (8d0f1dd)
C            3.26474208017489        1.18186492545164        0.09451799279045
N            2.28369504684827        0.13101347104525        0.07317732098616
C            2.59397730315076       -1.20894038041671        0.13867169587768
N            1.41212067740753       -1.92335763746536        0.02119170850004
C            0.34188829972487       -1.06484752991125       -0.04764644583348
C            0.89243245391783        0.20826957978147       -0.00067831167795
C            0.05179374217562        1.33803123149218       -0.03683828744710
O            0.47405722229213        2.49805410972522        0.05675892532411
N           -1.37114418000377        0.99250039375598       -0.17577594636562
C           -2.16707419430193        2.18767567541772        0.09715323345476
C           -2.09385190509189       -0.24989408108996       -0.64975504276978
O           -3.20890591020249       -0.32169188282493       -1.11901034763394
N           -1.02906564569152       -1.31640406903999       -0.17969002707522
C           -1.42904514307003       -2.68283768823431        0.10669723599785
H            3.76385624795105        1.24410192544535        1.06860972695970
H            4.03735879270384        1.00299165519439       -0.66180123959886
H            2.77225635294943        2.13016593296085       -0.10597951418733
H            3.58785343984193       -1.59171858711224        0.01769379778940
H           -1.53547122728273        3.07921938015525        0.20547512123117
H           -2.84361330889637        2.33920619914193       -0.73016583758727
H           -2.71216674441812        2.06126525948077        1.03519001500462
H           -0.71838858865786       -3.20426300907015        0.76380054787104
H           -1.51321820576554       -3.25172835322299       -0.81995555721373
H           -2.38790283428411       -2.66032735507091        0.61989368376041
H            1.44603089646449       -2.92932056341729        0.05549944799021
25
 energy: 35.815338608566 xtb: 6.6.1 (8d0f1dd)
C            3.26490236321769        1.18197678889716        0.09423997950747
N            2.28396822610589        0.13107703010047        0.07320341189843
C            2.59417450541578       -1.20907450615715        0.14306402868124
N            1.41183182391187       -1.92337807490369        0.02181063817606
C            0.34195498156762       -1.06446671795444       -0.04829200230531
C            0.89241815745396        0.20861732855807       -0.00162471208179
C            0.05236497932940        1.33817272578221       -0.03658280253674
O            0.47371006973436        2.49857389987757        0.05689261766921
N           -1.37094164546885        0.99273118928703       -0.17624660386003
C           -2.16714914525054        2.18736887455343        0.09721281562112
C           -2.09323403994235       -0.25016305645386       -0.64998475035986
O           -3.20846359648207       -0.32218947864846       -1.11907639540777
N           -1.02866399030585       -1.31622491660603       -0.17901572908124
C           -1.42886821976778       -2.68297687795831        0.10647943694509
H            3.76407124335242        1.24451420278523        1.06834072271258
H            4.03749496777376        1.00293433378683       -0.66197138848259
H            2.77221561844943        2.13011619636672       -0.10634588376719
H            3.58707055074500       -1.59204103860870        0.01448004582948
H           -1.53560109279307        3.07898116068606        0.20611106230619
H           -2.84341920604222        2.33940393012425       -0.73004185976058
H           -2.71252233971686        2.06053816533480        1.03509402283031
H           -0.71904862791671       -3.20431255123099        0.76366905760965
H           -1.51318158230440       -3.25189125261165       -0.82098441783145
H           -2.38799950305405       -2.66004278973567        0.61984999876139
H            1.44513016992386       -2.92921596309900        0.05675260307367
25
 energy: 35.854485468869 xtb: 6.6.1 (8d0f1dd)
C            3.26501725455788        1.18199957460955        0.09395542095288
N            2.28420841648007        0.13100498324649        0.07318056180648
C            2.59442638068138       -1.20921423823471        0.14568257814219
N            1.41158676088317       -1.92339938953731        0.02282301050148
C            0.34187275175223       -1.06436233474383       -0.04802569565290
C            0.89252785913515        0.20863653484139       -0.00202518256849
C            0.05252218345657        1.33806563165499       -0.03645953224874
O            0.47333784395231        2.49860455354237        0.05701527026452
N           -1.37085217199368        0.99322162707157       -0.17685013003702
C           -2.16716480253816        2.18747066800839        0.09730188758762
C           -2.09355271899798       -0.25025662768754       -0.64982792439814
O           -3.20834185511992       -0.32229556367180       -1.11980721979311
N           -1.02873894071577       -1.31605644701206       -0.17792806582636
C           -1.42899635286089       -2.68316734477161        0.10645772380419
H            3.76447312273863        1.24469905345787        1.06793078139705
H            4.03751017916418        1.00306514405623       -0.66238968966746
H            2.77221814412652        2.13013240438950       -0.10652499263942
H            3.58662761242033       -1.59254657510067        0.01183873999403
H           -1.53565843787292        3.07907258190588        0.20647342980057
H           -2.84359087827615        2.33982857243159       -0.72989380365405
H           -2.71243703110948        2.06037855963614        1.03524263366278
H           -0.71878961289076       -3.20468249212759        0.76405280392873
H           -1.51148586638077       -3.25110732783523       -0.82146894282586
H           -2.38885838419853       -2.66081257333600        0.61839993666479
H            1.44435321154289       -2.92925037262171        0.05788029695162
25
 energy: 35.892655850013 xtb: 6.6.1 (8d0f1dd)
C            3.26494586858586        1.18201881216067        0.09401123247258
N            2.28422317974858        0.13095436194847        0.07322112454950
C            2.59458606652246       -1.20916160479726        0.14765061848658
N            1.41165556404449       -1.92334943080519        0.02340028208468
C            0.34195644298852       -1.06445350405787       -0.04792295591000
C            0.89278253396778        0.20848762705072       -0.00217765175633
C            0.05249971273980        1.33804898912472       -0.03676373064463
O            0.47334576509190        2.49839012155931        0.05715483246406
N           -1.37078005969484        0.99352958119833       -0.17711438695352
C           -2.16704177450629        2.18762408456106        0.09740680262829
C           -2.09392543733088       -0.25038341939310       -0.64965682684950
O           -3.20828767800744       -0.32237345193591       -1.12014705533591
N           -1.02881999640435       -1.31589065571734       -0.17759645356635
C           -1.42883616094571       -2.68325988216427        0.10632159774639
H            3.76458683373908        1.24460214739483        1.06786661138733
H            4.03737762440560        1.00322754932476       -0.66251791062270
H            2.77218709126392        2.13020664722892       -0.10638508038284
H            3.58635755106061       -1.59239371546614        0.00930497463459
H           -1.53571828801137        3.07928154007142        0.20635682438934
H           -2.84358594677497        2.33975731783762       -0.72964532088765
H           -2.71215457649032        2.06043208494750        1.03537841775616
H           -0.71962848355276       -3.20440742909387        0.76482212451899
H           -1.51054675284341       -3.25142577036737       -0.82177235875903
H           -2.38934694915962       -2.66117252078788        0.61750518853156
H            1.44438253749965       -2.92926087765030        0.05833299616573
