25
 energy: 59.390326024775 xtb: 6.6.1 (8d0f1dd)
C            3.79195960447015        0.88403718562873        0.09967330786215
N            2.82017335094135       -0.15869024370407        0.01437906350137
C            3.07485238434812       -1.48532520068082       -0.05801937999741
N            1.89546340721385       -2.16729828971385       -0.06960287400034
C            0.80980896289369       -1.29777578734393        0.03746920983868
C            1.42950573275584        0.03190050610280        0.12091509387329
C            0.79722738628382        1.18288124839687        0.22267060391154
O            0.13485289680926        2.15778252449791        0.33159433259942
N           -3.24065551400271        1.54392028213736       -0.33910393745640
C           -3.32291510832223        2.94291309163500       -0.19483154239671
C           -3.46815386035987        0.43749082538518        0.00938409379461
O           -3.61692123006865       -0.70150066884979        0.17923985437415
N           -0.43819488554535       -1.50892969825372        0.05201040630922
C           -1.05046677566297       -2.80157064105221       -0.02774467124458
H            3.86610789409296        1.28286241104045        1.11652199897430
H            4.76592743111373        0.49773254773442       -0.19918308003463
H            3.50727250496911        1.69903313019978       -0.57018757512756
H            4.04790386087192       -1.91586101304700       -0.10740306107274
H           -2.31331740822255        3.34447647393523       -0.09501527507480
H           -3.78263511208304        3.35745381887233       -1.09500082022597
H           -3.91718527213170        3.22939832710662        0.67609510630158
H           -0.61217758792790       -3.53455846331181        0.66179253898198
H           -0.99877632303525       -3.20585805796392       -1.04455223908771
H           -2.09983238955826       -2.65701561343502        0.22768599327535
H            1.83239035512739       -3.16846990657331       -0.12175323568211
