25
 energy: -3.137641665621 xtb: 6.6.1 (8d0f1dd)
C            3.31863843501708        1.14366702266032        0.09783406837597
N            2.31993480920609        0.11993450478823        0.02181292709330
C            2.59917222035220       -1.24737302268866        0.02078115187686
N            1.39177148250168       -1.91791049635279       -0.02623835932117
C            0.38596291050325       -1.01818518933593       -0.01309928247209
C            0.90777655621837        0.26638332173835        0.01884339635045
C            0.03190745237431        1.38374422970275        0.03196758429966
O            0.37611040860577        2.56895411719580        0.05883721355120
N           -1.39523862837804        1.05378369077486       -0.03051875087819
C           -2.32520013078517        2.18548134764422       -0.07192914333646
C           -1.92521358020006       -0.20104741573238       -0.00655365198972
O           -3.10445904936414       -0.45569327441383       -0.02380708525171
N           -0.96366108747359       -1.26022243651790       -0.00598100999797
C           -1.42296999323867       -2.63429517198582       -0.05140754487702
H            3.75437273501078        1.22921259500298        1.11119814851241
H            4.14525779621749        0.92223789261430       -0.59193882488685
H            2.87667408287183        2.08981544381027       -0.18799189771582
H            3.57118742883591       -1.69662015435352        0.01437501314592
H           -1.73931910220767        3.10077181010262       -0.04598651507534
H           -2.92280569957951        2.18831048433997       -0.98200024674871
H           -2.99361487321336        2.16770997922817        0.78668847898761
H           -1.05537005216039       -3.20524064227236        0.80606268259638
H           -1.10985744652264       -3.13573785572439       -0.97355626962821
H           -2.50881978393223       -2.59881721183744       -0.01057342243837
H            1.31717255510315       -2.92352733357319       -0.04803075206319
