72
 energy: -99.670230315259 xtb: 6.6.1 (8d0f1dd)
N           -1.25198303836888        3.40347995609340        1.42147235739082
C           -1.43040101246501        2.22180403733450        1.03479517519412
C           -2.66971867737507        2.03250051123839        0.17680559293693
C           -3.30549486551940        0.62822985166705        0.29257140879617
C           -4.27949833242596        0.16776099218015       -0.61615658030811
C           -4.85173698262403       -1.09253071676203       -0.52133479836921
O           -5.82295580497951       -1.59736714480265       -1.34250290630076
C           -6.37955518622371       -0.78263342339193       -2.34066058057866
C           -4.44460885855532       -1.97912927262255        0.50125607492948
O           -5.05685769874100       -3.20008526073508        0.51662008897932
C           -4.72761183220109       -4.10950625310671        1.53679013889098
C           -3.48391476091263       -1.54032753710154        1.38965003090196
C           -2.93432581123513       -0.26350596992380        1.28677850106250
C           -2.23211354038200        2.19637410406066       -1.31405900743138
C           -1.26792280606417        1.09251263566947       -1.81341340616069
C            0.00653291118942        1.09985510680753       -1.06235700571784
N            0.58609312183502       -0.00067417152775       -0.46978369757753
C            1.97609140682147        0.04518809661709       -0.11392263581193
C            2.92272753522024       -0.47812648977680       -1.22064882072655
C            4.35402132274888       -0.39073808054994       -0.78407349632238
C            5.07966489421430        0.77387651827472       -0.95738453028069
C            6.40295268771187        0.85775322621592       -0.54710076673293
C            7.02424642038335       -0.22485259896476        0.04949514208120
O            8.32006286522335       -0.26406714195312        0.47516397558348
C            9.12894607843551        0.86552394370870        0.27081202789632
C            6.28926123215658       -1.41574190466305        0.24640611731288
O            6.98261567376642       -2.42892750327874        0.83952710099224
C            6.34220244164907       -3.66210397450951        1.03706948186008
C            4.97156659437092       -1.47976441413195       -0.16641838202498
C           -0.02686024475996       -1.29976928692189       -0.55134284934800
C           -3.67539776721034        3.20406757150054        0.63634372789813
C           -4.74721497085712        2.64896773237616        1.56545760145056
C           -3.20651541046723        4.59696138935016        1.27955585609690
H           -4.62388478731156        0.81330927034083       -1.40974439116684
H           -6.82668802347692        0.12392925742438       -1.92047177938906
H           -7.16060842391390       -1.38214119650252       -2.80932895636097
H           -5.63845360243687       -0.50553427739808       -3.09789162146620
H           -4.94861510697451       -3.70486169367185        2.53071530152347
H           -5.35010129739685       -4.98721425175314        1.36319053875672
H           -3.67362917471402       -4.40597931006368        1.49267656779442
H           -3.15601173817990       -2.18573696150123        2.18990656135938
H           -2.20360069086975        0.02143554967649        2.02606356953578
H           -3.09913444354361        2.20135036500405       -1.98001765883544
H           -1.72706959361373        3.15649381844914       -1.42012936664793
H           -1.74983168227890        0.11566932599401       -1.76734927662897
H           -1.07174167852203        1.29413483942581       -2.88156259259298
H           -0.80610490914537        1.37136871114370        1.32160410047663
H            0.59115362105296        2.00097311980110       -1.05462451934983
H            2.12510760434632       -0.55532349440737        0.79016232075992
H            2.24342918038666        1.07886122675734        0.11564027467158
H            2.76412210154233        0.12319427750543       -2.11789693639563
H            2.66233343914593       -1.51324223265904       -1.44782831002211
H            4.61964622520008        1.62948938408615       -1.42892272511682
H            6.94332345301550        1.77729482653123       -0.70760727105506
H            8.75260817064474        1.73847611409579        0.81494562490673
H            9.21824067073256        1.11314419222508       -0.79245530177708
H           10.10978048831125        0.59612038241147        0.66039667683587
H            7.09137389519396       -4.30837952319722        1.49242879010968
H            5.48532305830371       -3.57181099551147        1.71385161789520
H            6.01251065863100       -4.10482869676485        0.09082398547963
H            4.40387346419658       -2.38731719464589       -0.02711817503557
H           -0.02571319835737       -1.71480231745575       -1.56652768015789
H           -1.05878524749599       -1.24524532659332       -0.19925226069889
H            0.51920843257937       -1.98279454136338        0.09830733683377
H           -4.15841399177135        3.52856893464219       -0.29717801498371
H           -4.27800216226685        2.24086403180639        2.45291963204877
H           -5.36119284245559        1.87276895723713        1.10932518145979
H           -5.39580905490913        3.47243514891730        1.84794853844601
H           -3.02112794915530        4.86270809297010        2.37030915120154
H           -2.45174334660442        5.02070612612950        0.62074348612279
H           -4.09285476908680        5.20278316267670        1.22842136347949
H           -0.56970317466521        3.71061535739882        2.09363875424996
