25
 energy: -42.077443181222 gnorm: 0.001889875475 xtb: 6.6.1 (8d0f1dd)
C            3.16802675780173        1.01021043776808        0.17660571820010
N            2.26629693062248       -0.10108521614307        0.07742936629130
C            2.57512062865314       -1.39873887186370       -0.01649473821602
N            1.43985259229560       -2.14478940944484       -0.06281343566103
C            0.37903045459260       -1.29677247947020        0.00632369420443
C            0.89314825110388        0.01308877370003        0.09395196801472
C            0.06205011692908        1.11153302706532        0.13879155981108
O           -0.91015577451940        4.36998302701991       -0.38896400844715
N           -1.27231257666697        0.86407576940015        0.12172685854997
C           -2.13360991791617        1.87870630873714        0.11332545278840
C           -1.84305923139290       -0.47160156232465        0.10651003885788
O           -3.03200888240745       -0.63156344037602        0.16482776828615
N           -0.95151859026586       -1.53512046979732        0.00519613648239
C           -1.48079324501320       -2.88317301709272       -0.09326655819115
H            3.43148191120702        1.19658886346021        1.22019558267294
H            4.07707966776663        0.81229206816727       -0.38812675820869
H            2.66901639484046        1.89676359562087       -0.21339260941650
H            3.56682000739061       -1.80134413301277       -0.04923516472796
H           -1.37168841334615        5.17150998978884       -0.64362622308559
H           -3.18893432311989        1.66581124582363        0.11709367815565
H           -1.71932266815849        2.89300748821330        0.04524264184033
H           -1.12327298859448       -3.49392774333850        0.73621679763677
H           -1.18842859830450       -3.33356491742755       -1.04286192732992
H           -2.56727696898383       -2.82254315861044       -0.04780869476221
H            1.41488997956638       -3.15110763425763       -0.14567552583241
