  72
        -99.33800785
 N         -1.9648181364        2.6196875745        2.6931503341
 C         -1.7924150440        2.1129864298        1.5650638206
 C         -2.8902288975        2.0193360280        0.5332842255
 C         -3.4377549107        0.6021457100        0.4721718788
 C         -4.4500730048        0.3179995020       -0.4468365120
 C         -4.9907492950       -0.9520506476       -0.5510409635
 O         -5.9729634055       -1.3130771327       -1.4007806068
 C         -6.5822228204       -0.3296857660       -2.2043517357
 C         -4.5016582398       -1.9901393852        0.2892544291
 O         -5.0790289785       -3.1957050935        0.1147896226
 C         -4.7091667977       -4.2613290354        0.9580629897
 C         -3.5040888888       -1.6953353340        1.2038487059
 C         -2.9779251482       -0.4115606662        1.2949884138
 C         -2.2674267608        2.3869238205       -0.8367292117
 C         -1.3659930278        1.2937954598       -1.4345107307
 C         -0.0457485810        1.1744799995       -0.7764649435
 N          0.5605209360        0.0333464747       -0.4725311547
 C          1.9578972279        0.0220459156       -0.1083874225
 C          2.8479153982       -0.3608904112       -1.3074875261
 C          4.2988344898       -0.2512199808       -0.9325991334
 C          4.9740820270        0.9498524109       -1.0777639863
 C          6.3074834348        1.0628115778       -0.7165177216
 C          6.9927692834       -0.0257775376       -0.1966770850
 O          8.2841889280       -0.0328759181        0.1817020390
 C          9.0509940197        1.1399022225        0.0311418866
 C          6.3063972694       -1.2616623406       -0.0382662127
 O          7.0472328996       -2.2663390305        0.4701119841
 C          6.4661317579       -3.5380146837        0.6330339390
 C          4.9728389656       -1.3499877169       -0.4050185600
 C         -0.0850640254       -1.2462318465       -0.6414143246
 C         -4.0135422329        2.9795897506        0.9236483919
 C         -4.9155756936        2.5110572292        2.0198060084
 C         -4.1600954118        4.1807459975        0.3802411626
 H         -4.8312028287        1.1153701736       -1.0635266644
 H         -7.0281667105        0.4633363619       -1.5965757990
 H         -7.3650892066       -0.8475612868       -2.7547333679
 H         -5.8714052321        0.1080557782       -2.9124920832
 H         -4.9068852951       -4.0284930546        2.0086193947
 H         -5.3275875261       -5.1029461053        0.6525099468
 H         -3.6536194078       -4.5241662244        0.8341622549
 H         -3.1320550630       -2.4590200248        1.8674552740
 H         -2.2214314445       -0.2118059322        2.0383172482
 H         -3.0761486826        2.5742683761       -1.5418823061
 H         -1.6914906457        3.3075242214       -0.7306386590
 H         -1.9000132295        0.3453338998       -1.4457229777
 H         -1.1785579439        1.5799803072       -2.4784918393
 H         -0.8291366452        1.7116366910        1.1961497883
 H          0.5408697916        2.0748500088       -0.6675858598
 H          2.1131904361       -0.6913684776        0.7050512839
 H          2.2483644079        1.0132276084        0.2454761748
 H          2.6271665699        0.3165453137       -2.1344692314
 H          2.6172540298       -1.3789157231       -1.6234202332
 H          4.4665772199        1.8089992875       -1.4894517703
 H          6.8083545252        2.0075625944       -0.8498438754
 H          8.6516337178        1.9600493408        0.6354197396
 H          9.1060190733        1.4500276943       -1.0165969268
 H         10.0478681949        0.8838688982        0.3846595662
 H          7.2566569959       -4.1712256000        1.0308604732
 H          5.6336557376       -3.5109426331        1.3433947166
 H          6.1212660370       -3.9468987579       -0.3216543007
 H          4.4460429111       -2.2852576729       -0.2972864040
 H         -0.2129312440       -1.4898377345       -1.6986734191
 H         -1.0659336649       -1.2437936053       -0.1611853445
 H          0.5250406229       -2.0180524323       -0.1788981736
 H         -6.4294857061        3.1852524476       -1.7771049807
 H         -4.3266671469        2.3722564845        2.9242573317
 H         -5.3795010578        1.5574205025        1.7767516708
 H         -5.6898099820        3.2447125638        2.2147446063
 H         -3.5215669487        4.5799656626       -0.3869785199
 H         -5.9101632831        3.4142666563       -1.2382585364
 H         -4.9447150707        4.8393429859        0.7132736841
 H         -1.1690060726        2.6633941738        3.3217300599
