25
 energy: 60.312385645828 xtb: 6.6.1 (8d0f1dd)
C            4.05868016360015        0.76541932547909        0.11325944728316
N            2.98048833688328       -0.15974875733650        0.07875816959645
C            3.10456344428351       -1.50269124169842       -0.04686847206570
N            1.86514734520025       -2.06439873124285       -0.04338653509738
C            0.87646878859409       -1.09060110777287        0.02678492531582
C            1.61050793024556        0.17303713169228        0.10405928736623
C            1.08947734464737        1.38576703355642        0.15636999925210
O            0.70953278544498        2.49638049349574        0.32489507073628
N           -3.38958874357865        1.28590206986280       -0.14291399946330
C           -3.75101748936132        2.64436667879129       -0.12562612634393
C           -3.76236786637843        0.16392054331288       -0.16894466545424
O           -4.02258156334462       -0.96706562166999       -0.19830888133453
N           -0.38753978748017       -1.18891196387835        0.04686240960295
C           -1.04823377263025       -2.46168454227126        0.01286310883655
H            4.03075586191048        1.36675493839006        1.02372412681889
H            4.99153346687709        0.19972284128928        0.12730596023143
H            4.07733730675226        1.42384208165685       -0.76187166815334
H            4.02887778010184       -2.02466644778845       -0.12187543175516
H           -2.85576941808715        3.26468938753747       -0.03574023153420
H           -4.28407317479408        2.89676137245450       -1.04585907749297
H           -4.40235355160729        2.84197777231673        0.72823957824279
H           -0.75209071417907       -3.07005744616279        0.87238012653877
H           -0.82139494923484       -3.00376826563593       -0.90498093389030
H           -2.12602061577600       -2.31408917629992        0.04329665915956
H            1.70437684030391       -3.04914595770275       -0.13615643932096
