25
 energy: 3.521793926231 xtb: 6.6.1 (8d0f1dd)
C            3.43367801485537        1.10046904029880        0.10267678151732
N            2.34635283138468        0.15897241789307        0.00289349309876
C            2.56308138690580       -1.22532762706180        0.00052330281887
N            1.33790749914411       -1.85259763656733       -0.03159032200277
C            0.36950655741731       -0.92320000521189       -0.02975215307934
C            0.91244556962947        0.35793237970891       -0.00376428590168
C           -0.01628181452788        1.46491833850783        0.02128399715534
O            0.29894128114759        2.64949545378849        0.03773307776924
N           -1.46499916238758        1.08050430846342       -0.03821745108698
C           -2.44808948143648        2.13998263209258       -0.04454752394522
C           -1.97165483073621       -0.17383474230804       -0.09674924218602
O           -3.13713265708719       -0.49005620931006       -0.12464549378022
N           -0.96884425471308       -1.19313557144072       -0.04980739716680
C           -1.37128635819791       -2.58367171421819       -0.04597932050507
H            3.89365016751031        1.13802117218421        1.11905538344188
H            4.28799186582297        0.77852130155480       -0.53917500564041
H            3.08432351418305        2.08509662710523       -0.19831434834445
H            3.50324909467834       -1.76331137967170        0.00579336129450
H           -1.85185434373781        3.05135110715758       -0.00799746002186
H           -3.06902363049340        2.10267095402031       -0.94455387009214
H           -3.13739780819987        2.06114254382929        0.80473936610788
H           -1.02726766363513       -3.11377169793303        0.84587658907708
H           -1.01434363653235       -3.10210540387269       -0.94002388726878
H           -2.44791037592858       -2.58609747114183       -0.03261290715263
H            1.21060895070500       -2.85886378555426       -0.03430843352951
