25
 energy: 61.641659619404 xtb: 6.6.1 (8d0f1dd)
C            4.02810028840508        0.76205248923381        0.12465366297782
N            2.93408477295630       -0.14020986763522        0.08238941116345
C            3.05339847538894       -1.48095882160493       -0.05841633404376
N            1.81570243561343       -2.04136002687123       -0.04964068244501
C            0.83178734248267       -1.06325845077617        0.01883908912582
C            1.56294352685907        0.19853435842726        0.10426280674093
C            1.02583164574985        1.40821316075812        0.14520232942667
O            0.70424823114309        2.53513440309514        0.34656708312654
N           -3.28256059204491        1.25934819523231       -0.13982833107262
C           -3.69520047733349        2.59884028185207       -0.12216606978223
C           -3.67036634397368        0.14272076997299       -0.16562905220812
O           -3.95902914782791       -0.98041702677484       -0.19537069342585
N           -0.43170252425819       -1.16064160136712        0.03868609123391
C           -1.07721653921630       -2.44376917727836        0.02200172793626
H            3.96846288477656        1.42896599522148        0.98795003466620
H            4.93571693779187        0.15970540245837        0.25398963677285
H            4.15209576288511        1.34484476120476       -0.80090636932536
H            3.97422083469538       -2.00711226896627       -0.13904342755085
H           -2.81828816469533        3.24823274498246       -0.01381924876322
H           -4.23378484481230        2.82682188865129       -1.04592467309669
H           -4.36883795423911        2.75697641600770        0.72273859972679
H           -0.74354072576809       -3.02739680102879        0.88401198070067
H           -0.86207289765545       -2.99344635101131       -0.89127482194373
H           -2.15964765012219       -2.34055827510036        0.06721013459681
H            1.65178620453562       -3.02364968721699       -0.15391344780615
