25
 energy: 77.216790452343 xtb: 6.6.1 (8d0f1dd)
C            3.84148509047737        0.78429113245300        0.18851907638411
N            2.66888103222909        0.00182399691951        0.00433914613358
C            2.76823855500321       -1.33247925685166       -0.18207508352262
N            1.53974942955517       -1.89496165424105       -0.14964059047366
C            0.56931204618511       -0.91854541521316       -0.04022891714375
C            1.28472986216657        0.34333121585213        0.06755622628032
C            0.66264128313768        1.51824798844684        0.17032945154717
O            0.37712056869879        2.63998838690636        0.45001036671828
N           -2.62961691633604        1.14363447897231       -0.11772399590072
C           -3.30555653380826        2.36671462694311       -0.11160792727397
C           -3.09234411444988        0.04750908821655       -0.14080421414405
O           -3.60248680500528       -0.98425311176081       -0.18177485844769
N           -0.69223900327919       -1.06974583032198        0.01160849044987
C           -1.19245539468355       -2.43496457260516        0.12033021900252
H            3.66580819965690        1.66645149225033        0.82702244338373
H            4.52342412876060        0.04902979830617        0.60515597407697
H            4.24219060516210        1.31910594345897       -0.66699330499506
H            3.67966636277412       -1.85948067235515       -0.22507360881539
H           -2.54124599261913        3.15499059740686        0.03961271250686
H           -3.85395616639078        2.47118076195781       -1.05583090406383
H           -4.04594690058707        2.31922701807886        0.69071868686654
H           -0.63850043415956       -2.85789360160984        0.96436187094407
H           -0.95649558106298       -3.01509803818609       -0.78285667934134
H           -2.27656984193443       -2.43858043464815        0.28668815859039
H            1.35610943180306       -2.86613857671050       -0.29488368857278
