25
 energy: 63.587107095418 xtb: 6.6.1 (8d0f1dd)
C            3.98846622282057        0.75667346602610        0.14094666631219
N            2.88198900597487       -0.12217246071679        0.08256459573115
C            3.00065834020557       -1.45974666055325       -0.07133395216933
N            1.76476014497026       -2.01903150114452       -0.05697695506523
C            0.78453215405586       -1.03778765210804        0.01154711711166
C            1.51179433183446        0.22328302413626        0.10358699151361
C            0.96086653289578        1.43093054380442        0.14099098027118
O            0.66038523541614        2.56313474828722        0.36507195388119
N           -3.17597273616568        1.23110678907862       -0.13386292739627
C           -3.64044657349440        2.55059310604509       -0.11903945640970
C           -3.57761892655944        0.12115585422322       -0.16269420138788
O           -3.89879510643652       -0.99033327011962       -0.19081669282707
N           -0.47846897393820       -1.13888197800701        0.03012229712681
C           -1.10833085241788       -2.43316877861964        0.03473347876858
H            3.90601722714072        1.48805958674121        0.94564091786491
H            4.85411620367896        0.12972939305603        0.37874498105957
H            4.21870234923087        1.23796163064546       -0.81896577135621
H            3.91984049524793       -1.98703765509328       -0.15097258365688
H           -2.77749555145309        3.21656890693297        0.00505214062498
H           -4.17909625297693        2.75872602606246       -1.04872025419067
H           -4.33070282207688        2.67340590593162        0.72026025415801
H           -0.73837239081699       -2.98514786010848        0.90083212190840
H           -0.90380789279943       -2.99780873368649       -0.87132809081602
H           -2.19261803308569       -2.36360097648537        0.09849894451549
H            1.59852151967667       -2.99884427260852       -0.17169228586461
