  25
        -42.15806196
 C          3.2784627613        1.0585108257        0.0024954588
 N          2.1806895624        0.1780620918       -0.0009307573
 C          3.4483526466       -0.4262759167        0.0033025007
 N          1.0666724704       -2.2744361249        0.0072096383
 C          0.2830306940       -1.2735728571       -0.0023978167
 C          0.8957813782        0.0484978668       -0.0057257153
 C          0.0788196308        1.2808484400       -0.0049830044
 O          0.5906728017        2.3781787032       -0.0103277526
 N         -1.2766801178        1.0683083802        0.0029776743
 C         -2.1600613050        2.2217739392        0.0092858933
 C         -1.9072085940       -0.1725945078        0.0007440720
 O         -3.1059454578       -0.2535646280        0.0040597300
 N         -1.0961060985       -1.3025186785       -0.0057408951
 C         -1.7636870364       -2.5936337326       -0.0050058262
 H          3.4562614963        1.6220100121        0.9130968425
 H          3.4420199981        1.6388689073       -0.8991028208
 H          3.7631842095       -0.9459490464       -0.8890389886
 H          3.7376964147       -0.9290498792        0.9199536910
 H         -1.5491303888        3.1216213397        0.0063232168
 H         -2.8059174440        2.1977354860       -0.8693521695
 H         -2.7948869484        2.1960961562        0.8958478067
 H         -1.5036371063       -3.1546897427        0.8943501007
 H         -1.4839763429       -3.1651145066       -0.8915165718
 H         -2.8382753743       -2.4195051775       -0.0170249210
 H          0.6878372179       -3.2107620045        0.0143251392
