25
 energy: -42.181973894279 gnorm: 0.005496052677 xtb: 6.6.1 (8d0f1dd)
C            3.18341065673048        1.04746175193900        0.27242192948300
N            2.22710604072296        0.02072458983327       -0.00660721678522
C            2.45784187992549       -1.35239151320527        0.08600515102402
N            1.44663592118664       -2.06950454964443       -0.18999524259975
C            0.39015396387755       -1.18265096291289       -0.60329967510458
C            0.95761353073964        0.17710909651758       -0.37635815242019
C            0.11160008558548        1.34963570630214       -0.27666202959319
O            0.51537244353215        2.49303101880072       -0.25954574941046
N           -1.22761011976365        1.01287958992038       -0.15483193265108
C           -2.19065226479801        2.09263387283630       -0.07741640955658
C           -1.73485280736191       -0.26398097450376        0.15884534906726
O           -2.87736224341037       -0.38573970551596        0.51632182847882
N           -0.87577896759944       -1.33075588671692        0.06631849916684
C           -1.37123894953417       -2.66489825200342        0.29165759227843
H            3.74874034954949        0.79513348556579        1.16974227661172
H            3.88371910182491        1.14030163319335       -0.56225724689959
H            2.66995167853608        2.00158433318720        0.39908419268661
H            3.41250546103795       -1.74560044368935        0.38607677012838
H           -1.70671275810477        3.01204918641084       -0.40007420277849
H           -3.04456006472171        1.85695044177621       -0.71368683757826
H           -2.56047156970519        2.20784373154397        0.94410498469479
H           -0.60832200058882       -3.24257346584515        0.81332075475811
H           -1.59797739090990       -3.16510541070151       -0.65404987493510
H           -2.28056214338140       -2.59789869249672        0.88635850285626
H            0.23188168073179       -1.38800003899287       -1.68430164302169
