25
 energy: -42.056983012475 gnorm: 0.006000184942 xtb: 6.6.1 (8d0f1dd)
C            3.16789312868508        1.30822366945112        0.01827605889932
N            2.25512757833294        0.19364541178575        0.00209489542003
C            2.57494520401126       -1.10715113599419       -0.00526888866928
N            1.42514599707875       -1.81837551370023       -0.00670708249597
C            0.36006564307707       -0.96665589462805        0.00072751715206
C            0.88886359955528        0.31999595215818        0.00717247417096
C            0.02421667070705        1.48660814506074       -0.00151678479033
O            0.38445282579550        2.63795637276919       -0.01434065835985
N           -1.32251128780467        1.12017199012332        0.00209776773606
C           -2.30983799043700        2.19239048580730       -0.00116644012319
C           -1.86273653488176       -0.15185292802300        0.00512529780644
O           -3.04468298523147       -0.35126187745776        0.00910075612374
N           -0.95268467420951       -1.23434842762163        0.00156691377447
C           -1.46892449759048       -2.58494387372959       -0.00285743671005
H            3.66220449668342        1.36749318810182        0.98948410871902
H            3.93243260939112        1.17183995891094       -0.74560496307348
H            2.61776124828903        2.22954144398692       -0.16029248487394
H            3.95429766541814       -3.76978349005413       -0.03626767577298
H           -1.78351115308658        3.14338104657055        0.00893745845697
H           -2.93547398771912        2.11523552383486       -0.89052029644304
H           -2.95195213907099        2.10404828106907        0.87516656287803
H           -1.13353786740566       -3.12387917222374        0.88438194953032
H           -1.14598874849442       -3.11346410867329       -0.90101432255243
H           -2.55682942732965       -2.52409930473178        0.00491304739868
H            1.38169614033665       -2.82647720119238       -0.01231615630163
