25
 energy: -42.106040067085 gnorm: 0.003392637689 xtb: 6.6.1 (8d0f1dd)
C            3.13028617186462        1.15424164300155       -0.04889940022357
N            2.21939709841708        0.04160164924858       -0.03182906307054
C            2.53500050445519       -1.25055730187862       -0.00355529353038
N            1.40691717157358       -1.99834128524975        0.02220163835401
C            0.33948909787509       -1.15115092437129        0.01036843550085
C            0.84384468299917        0.14217502104753       -0.02245543319335
C           -0.00390930656183        1.29665576066647       -0.05304584201578
O            0.33107947477626        2.45956123980593       -0.10457871745272
N           -1.39234667379994        0.92542185912181       -0.01714939455499
C           -2.29072626166254        1.91986179072745       -0.02314097312768
C           -1.90791616663491       -0.40642890474193        0.01115889224045
O           -3.08970104789041       -0.61467287603002        0.02944413590344
N           -0.97763872547705       -1.44076233879560        0.02223088038902
C           -1.44884107636890       -2.81303359500014        0.05352826757082
H            3.62291170658164        1.25618757162643        0.91934565879424
H            3.89047487243361        1.00979548420151       -0.81572396861251
H            2.56738980031322        2.06388298140557       -0.25364791991463
H            3.53056883142081       -1.64700870701406       -0.00223785638336
H           -1.51219096214095        4.71658959977220        0.13076025277052
H           -1.93104273987440        2.94831764424159       -0.01619148242582
H           -3.33531922747779        1.66851944144528       -0.00239029614848
H           -1.10944997893313       -3.31025505145554        0.96237990071646
H           -1.09947374401755       -3.35374973301018       -0.82642628984089
H           -2.53749527892760       -2.79110830956858        0.04755067840872
H            1.37912329115423       -3.00750411759511        0.04347480774599
