72
 energy: -99.347843939320 gnorm: 0.001860404716 xtb: 6.6.1 (8d0f1dd)
N           -1.44761263642448        2.70047907623379        2.13322459613451
C           -1.67781991990698        1.82247779565289        1.27190489530324
C           -2.93463278791343        1.77284445808012        0.44552956706490
C           -3.49100458623103        0.35880720079501        0.46443492463877
C           -4.42682752547603       -0.04772426487158       -0.48807865623750
C           -4.98064087179412       -1.31717528316340       -0.46370957747132
O           -5.89227124466422       -1.78720462805049       -1.34302650222290
C           -6.42212517516362       -0.91931577220033       -2.31615390001945
C           -4.58905250188121       -2.23327596964197        0.54841485431583
O           -5.16593106896319       -3.45150189273662        0.48594519955239
C           -4.88434988316688       -4.39245302248065        1.49523077597255
C           -3.67618677535065       -1.81665414378316        1.50423899147274
C           -3.14135087018317       -0.53701630391295        1.46427803282974
C           -2.51218817801049        2.18915904386294       -0.98967138815893
C           -1.66400508995351        1.15850544959645       -1.74234234388728
C           -0.22595216660731        1.19052992880758       -1.36526785277842
N            0.65015585541037        0.25183934046488       -1.72377019119830
C            1.93138786010127        0.27958945379379       -1.35335174182625
C            2.98406058724794       -0.68287589079714       -1.80490300246057
C            4.30478533784654       -0.33550072857448       -1.17747365878992
C            5.09071929508456        0.66445902037272       -1.64585934806695
C            6.30174710728849        1.02227713575140       -1.02928594274229
C            6.74988351899844        0.35127430532756        0.10928899170428
O            7.89893989872975        0.62138097302029        0.77092784616653
C            8.73473885846079        1.65275848718134        0.29587087604232
C            5.99169876498269       -0.69633572427110        0.64166228075189
O            6.49197088380399       -1.31023492600410        1.72291770139386
C            5.83553593499355       -2.42494731629639        2.27719769237144
C            4.69446179294198       -1.11114117371242        0.03756856652685
C            0.15594396827247       -0.85222650231822       -2.52740918064944
C           -4.06190776797321        2.72277404563673        0.95140349068108
C           -4.46958591863578        2.39198961403924        2.38533858205274
C           -3.70827027988670        4.20446571553457        0.85280908059180
H           -4.73700732450408        0.64324991533869       -1.25429381090610
H           -6.90779267020014       -0.05186943764392       -1.85877335622951
H           -7.16484934793555       -1.50449007613895       -2.85498105637561
H           -5.65243374692061       -0.58071795643979       -3.01769381476574
H           -5.16871686724630       -4.01831903571996        2.48312741447483
H           -5.48443288333118       -5.26766192123441        1.25441468724053
H           -3.82526872678781       -4.66998764046213        1.50112487113406
H           -3.38066746981743       -2.47982425203529        2.30095047266411
H           -2.45994491699437       -0.23879437306929        2.24601258790389
H           -3.41771267033054        2.37891398435860       -1.56560346590118
H           -1.96213279858624        3.12814875035938       -0.93066269420516
H           -2.08550351836222        0.16099245125089       -1.58135087884103
H           -1.76171794434281        1.37253686633362       -2.81671383049294
H           -0.96154405676252        1.03056757708346        0.99938082848145
H            0.16657627242112        2.05237096205406       -0.85233483829287
H            3.89097617373951       -1.01942504162019        0.78686421678618
H            2.24370406559501        1.12661281441154       -0.76559988667116
H            3.09081082301974       -0.63901092948345       -2.89685071339015
H            2.71676030062905       -1.71301700579714       -1.54039863674729
H            4.78820908165067        1.21311093161256       -2.52524993955605
H            6.88351988021690        1.82101892742143       -1.45449953952695
H            8.22423040477619        2.62007811044927        0.30480767238505
H            9.10110657686718        1.43945374713691       -0.71260981632845
H            9.57602594970208        1.68292024328331        0.98549003098291
H            6.43979508830044       -2.72617915034511        3.13068930858739
H            4.82675294482607       -2.17541114984047        2.61915430599636
H            5.78138746664147       -3.25403866335449        1.56503720725938
H            4.73555111238052       -2.18288714119388       -0.21294213477904
H           -0.40168597246711       -0.46549059466569       -3.37917827423643
H           -0.50843554015669       -1.48258536615932       -1.93488617367148
H            0.97691339952610       -1.45655352502889       -2.89615594536303
H           -4.92803721530855        2.53486710115926        0.30498185493576
H           -3.65037105245966        2.60694035416441        3.06477421670108
H           -4.74949795673892        1.34600903461502        2.48523791813778
H           -5.32267528059559        3.00137958180833        2.67191812056582
H           -2.80502345483399        4.41099410507638        1.41792676818835
H           -3.57177738844157        4.52367667402711       -0.17679780443137
H           -4.51986848464970        4.79105906746643        1.27622012149899
H           -0.55302107148114        2.66547408201390        2.61284519034903
