25
 energy: 56.119980898388 xtb: 6.6.1 (8d0f1dd)
C            3.45277702692602        0.92746045696351        0.18677449127516
N            2.47415236164379       -0.11487108148336        0.02627415867322
C            2.78507781218151       -1.39562339950446       -0.12439109300698
N            1.64813518791410       -2.13404956216522       -0.14808664208478
C            0.58514180861017       -1.26200539233695       -0.01926235727010
C            1.12083849156916        0.01271507450920        0.07255782059957
C            0.22365774465316        1.19050280342751        0.22659744428482
O            0.69511140863777        2.30536469221424        0.37525281808448
N           -1.07951713028559        0.88771369634766        0.22516881041263
C           -3.36069191445846        3.26475775952487       -0.40789724605298
C           -1.64648568818149       -0.27967036902605        0.21345306535798
O           -2.79160602885408       -0.61152762038639        0.34264980024378
N           -0.70940126023245       -1.49795822803966        0.01475908884751
C           -1.22612915476275       -2.83151495959013        0.01840487533421
H            3.98989738773894        0.79052580120830        1.11859851722081
H            4.16933731564866        0.87252065952816       -0.63276501684657
H            2.96372654903188        1.90121117179149        0.20590431778632
H            3.76893012420778       -1.77998081742285       -0.24930670904028
H           -2.60927658375921        4.00627516848125       -0.38990757407033
H           -3.72290148309781        2.90237028680532       -1.33566467396511
H           -3.86379854809700        2.99824016104431        0.48300347162479
H           -0.81652200939274       -3.39362372403979        0.85997116423907
H           -0.96129785913397       -3.32186774719425       -0.91783367489499
H           -2.30631002589587       -2.80444398869037        0.12897572712125
H            1.61681950393548       -3.14039558189667       -0.23943324811815
