25
 energy: 55.301633017620 xtb: 6.6.1 (8d0f1dd)
C            3.45183666291546        0.93076113987819        0.17477710464838
N            2.49129438770695       -0.12859293384444        0.02830801616274
C            2.80430128095399       -1.40940506342794       -0.12093454512902
N            1.66725920285873       -2.14972262477841       -0.14289340370270
C            0.60213277399422       -1.27917712973485       -0.00908420646479
C            1.13841795656261       -0.00334180606301        0.08424595993086
C            0.24556458594014        1.17688709487110        0.22867422609897
O            0.71548699801719        2.29851975772773        0.33525133839616
N           -1.05528377219906        0.86547900839880        0.25541043850422
C           -3.42586204578833        3.34450720217931       -0.41209108892650
C           -1.62375307705133       -0.29944793408071        0.21653682327535
O           -2.77381928649263       -0.62359275657384        0.30779748781452
N           -0.69208632112594       -1.52035113520078        0.02199529982441
C           -1.22489914931574       -2.84855894797991        0.01044846528532
H            3.98621611742059        0.82984243735458        1.11326959409489
H            4.17205499325309        0.88417142666732       -0.64103572313713
H            2.94286213437049        1.89369734761292        0.17440537375645
H            3.78686084278657       -1.80573542252977       -0.23968659554327
H           -2.65129745339380        4.07051377579262       -0.38895599633207
H           -3.77783148843109        2.96972970581949       -1.34305460492180
H           -3.91753951275776        3.06540241278661        0.48704435442761
H           -0.82639224408079       -3.42275206597422        0.85160448884516
H           -0.96418732991465       -3.34016387634638       -0.92784575097972
H           -2.30817683403636       -2.79224684117664        0.11417395678728
H            1.64646712403522       -3.15783442177416       -0.22835182745374
