  25
        -42.09018752
 C          3.2207246579        1.1271503804        0.0152513063
 N          2.2640129301        0.0544941481       -0.0010243924
 C          2.5588365389       -1.2498078492       -0.0061424330
 N          1.3913163381       -1.9332287845       -0.0053091415
 C          0.3454202894       -1.0576477225        0.0002044388
 C          0.8972618998        0.2172837184        0.0052139792
 C          0.0712514829        1.4026061926       -0.0030605138
 O          0.4627702898        2.5459853172       -0.0148434447
 N         -1.2867544832        1.0742443785        0.0013204428
 C         -2.2432950744        2.1695419305        0.0002495936
 C         -1.8551011088       -0.1888715036        0.0034298048
 O         -3.0448095494       -0.3526201398        0.0062901383
 N         -0.9785985278       -1.2893796146        0.0007406979
 C         -1.5286093945       -2.6282677784       -0.0023242221
 H          3.7229127445        1.1659618096        0.9833958916
 H          3.9712756164        0.9629215832       -0.7568938370
 H          2.7070261389        2.0724312417       -0.1566968139
 H          4.9539973603       -2.9363850402       -0.0084915847
 H         -1.6915709673        3.1070071796        0.0082578693
 H         -2.8752741697        2.1089155298       -0.8868610315
 H         -2.8866510423        2.0993069669        0.8783383371
 H         -1.2043597912       -3.1735767247        0.8849330295
 H         -1.2188497014       -3.1640374602       -0.9006088237
 H         -2.6146528173       -2.5419553934        0.0066044603
 H          1.3313249201       -2.9407989599       -0.0096249559
