  25
        -42.15562166
 C          2.9058002139        0.8794405471        0.4160364183
 N          1.9049781559       -0.1184729792        0.1078156327
 C          2.2156217865       -1.2910532404       -0.3628511711
 N          1.2858534584       -2.2148243274       -0.7320232645
 C         -0.0928077301       -2.0551376562       -0.4187134503
 C          0.5841538589        0.2385139028        0.3590435317
 C          0.0003243238        1.5070789188        0.1349970024
 O          0.4634560372        2.6189373882        0.1147095077
 N         -1.4105567260        1.2472973602       -0.0545432839
 C         -2.3567556637        2.3232097661       -0.2586567759
 C         -1.7196383152       -0.0360102301       -0.1161304311
 O         -2.7123186673       -0.6578552203       -0.3115401491
 N         -0.4157132359       -0.7770548343        0.1833510262
 C         -0.5099651062       -1.9828950101        1.0014125149
 H          3.0624868372        0.9271428978        1.4943687602
 H          3.8427689619        0.6399769211       -0.0791835023
 H          2.5468281144        1.8563643356        0.0887629880
 H          3.2508814090       -1.5483091972       -0.5153378264
 H         -1.7822214670        3.2486823377       -0.2679754243
 H         -2.8792347443        2.1937758278       -1.2050943958
 H         -3.0822864699        2.3450068975        0.5534111916
 H          0.2354483050       -2.0953144264        1.7781770533
 H         -0.7760086927       -2.4215411055       -1.1709207768
 H         -1.5199048981       -2.2676414095        1.2758617636
 H          1.6011405099       -3.1501640213       -0.9417588532
