  72
        -99.30610456
 N         -1.7179171174        2.6974512988        2.4688889681
 C         -1.7185763004        2.0948751242        1.3750325939
 C         -2.8952694559        2.0081807860        0.4434737792
 C         -3.4259825239        0.5818988372        0.4246673514
 C         -4.4129656401        0.2242668301       -0.4961972257
 C         -4.9460630191       -1.0531381019       -0.5273411162
 O         -5.9118981065       -1.4740696179       -1.3707273671
 C         -6.5307129749       -0.5440648662       -2.2280881981
 C         -4.4694781067       -2.0327437348        0.3846963990
 O         -5.0395224678       -3.2505300261        0.2783144588
 C         -4.6865067806       -4.2545522034        1.2005233276
 C         -3.4876031229       -1.6729337477        1.2932279650
 C         -2.9763829407       -0.3808248235        1.3143903263
 C         -2.3599515875        2.3872756202       -0.9621106981
 C         -1.4725575332        1.3124492412       -1.6160921250
 C         -0.1248715071        1.2134414070       -1.0121007656
 N          0.5140181976        0.0768179685       -0.7306543762
 C          1.9033672281        0.0942758379       -0.3486816522
 C          2.8330172523       -0.2665992029       -1.5315898463
 C          4.2650015887       -0.2331459355       -1.0976638811
 C          5.0213583830        1.0449334145       -1.2803800449
 C          6.3558123391        1.0394310079       -0.6818142678
 C          6.9070238547       -0.0300009057       -0.0654260289
 O          8.1325156687       -0.0541181191        0.5013273503
 C          8.8608437318        1.1512472057        0.4281804184
 C          6.1750354260       -1.2739191103       -0.0100723442
 O          6.8278630742       -2.3011009091        0.5287493472
 C          6.2378990878       -3.5822294842        0.5678005060
 C          4.8592416734       -1.3097434354       -0.5078171996
 C         -0.1264724636       -1.2098428584       -0.8627157999
 C         -4.0622453056        2.9603560150        0.8412699262
 C         -4.6889996697        2.5503418926        2.1718748954
 C         -3.6470928191        4.4279374249        0.8974836441
 H         -4.7820527690        0.9624297658       -1.1884705068
 H         -6.9829763033        0.2791806850       -1.6668515059
 H         -7.3114470963       -1.0986279272       -2.7449335370
 H         -5.8264445607       -0.1433218667       -2.9644954515
 H         -4.9003450144       -3.9478276706        2.2286723839
 H         -5.3022142117       -5.1147686646        0.9453189920
 H         -3.6298668736       -4.5274761001        1.1126398857
 H         -3.1195258847       -2.3900854533        2.0089765350
 H         -2.2382209695       -0.1303713457        2.0606319135
 H         -3.2079965984        2.5711038576       -1.6206554302
 H         -1.7947414378        3.3168282471       -0.8856026154
 H         -1.9906022770        0.3550635210       -1.6038718312
 H         -1.3430163694        1.6077625704       -2.6658244734
 H         -0.8284954795        1.5899462500        0.9494997484
 H          0.4531032736        2.1221036299       -0.9325633386
 H          2.0627493903       -0.6199879506        0.4636503255
 H          2.1626355124        1.0899384769        0.0172132559
 H          2.6638390363        0.4503639353       -2.3370418613
 H          2.5731930849       -1.2627326974       -1.8943821689
 H          4.4434078423        1.8855507936       -0.8739896809
 H          5.1162357125        1.2592952311       -2.3549376411
 H          8.3281739830        1.9577661652        0.9406691870
 H          9.0218449422        1.4442807227       -0.6131915938
 H          9.8137657532        0.9620217168        0.9166025923
 H          6.9919767289       -4.2377532192        0.9989154927
 H          5.3464945600       -3.5921113902        1.2023039453
 H          5.9810348374       -3.9337536238       -0.4356184243
 H          4.2987439374       -2.2295750473       -0.4149783898
 H         -0.3280023260       -1.4472972303       -1.9096661565
 H         -1.0706022919       -1.2234018227       -0.3123281219
 H          0.5236134010       -1.9779783367       -0.4516020362
 H         -4.8269791109        2.8564888787        0.0632784770
 H         -3.9652796770        2.6589930184        2.9730201732
 H         -5.0325573287        1.5191687901        2.1436485784
 H         -5.5415897563        3.1896971217        2.3850456237
 H         -2.8683961197        4.5724242800        1.6399452299
 H         -3.2966150484        4.7884715145       -0.0660546689
 H         -4.5051720942        5.0296783446        1.1851243705
 H         -0.8551286055        2.7108830458        3.0037358798
