25
 energy: 0.000000000000 xtb: 6.6.1 (8d0f1dd)
C            3.23720132972391        1.16630909158653        0.08434468864950
N            2.29877796055224        0.07527476373246        0.03981602671198
C            2.58028186251803       -1.21425391179017        0.03006175752192
N            1.43813944744728       -1.93419254010258        0.00098261751768
C            0.39035684826767       -1.05887462812143       -0.00790371763344
C            0.93510047688824        0.21347817468824        0.01709077332874
C            0.09450143016486        1.40504290868848       -0.00410946993748
O            0.49712746915594        2.54126690785742       -0.00342325656480
N           -1.25076628431515        1.06271869620815       -0.03085477937476
C           -2.21907191394203        2.15522079838987       -0.05001256521996
C           -1.81739470187490       -0.20012724136556       -0.04692818139228
O           -2.99983858926755       -0.37846413507442       -0.07008877579474
N           -0.92618577614240       -1.30210203518959       -0.03682761236648
C           -1.46982251276835       -2.64643077634382       -0.06029819901142
H            3.71247229913541        1.21471443890471        1.06488839270555
H            4.00791460421487        1.03430799217987       -0.67357688121503
H            2.69909982127087        2.09770098766290       -0.09130154035862
H            3.56654087521359       -1.63682977417947        0.04233139674524
H           -1.67107945562430        3.09322822573871       -0.02552706696334
H           -2.82428927394145        2.09428605349656       -0.95318074103337
H           -2.87644002486466        2.07745706351925        0.81450059976605
H           -1.17061985538665       -3.19584861009707        0.83242224714061
H           -1.14560246782873       -3.17511580834413       -0.95688266944647
H           -2.55549768731684       -2.55659960601237       -0.07459039105944
H            1.38130842369251       -2.94313824728853       -0.01389874052104
25
 energy: -6.333419238472 xtb: 6.6.1 (8d0f1dd)
C            3.24172546752076        1.17906523313817        0.08614430599125
N            2.32014842195076        0.09328496005196        0.03442696660546
C            2.61693784355123       -1.25752213448390        0.03255187088827
N            1.42141496045021       -1.93606298110686        0.00162808289253
C            0.40409823562217       -1.05550697092119       -0.00808881340064
C            0.93148980659089        0.22789823597826        0.01491528137065
C            0.12084035124055        1.38763937560992       -0.00467165605590
O            0.49002558624600        2.56492454847109       -0.00413641369688
N           -1.26682575436871        1.05226188426478       -0.03102354076698
C           -2.22307613885219        2.14926093741960       -0.04945529569839
C           -1.81506016885109       -0.19368057636661       -0.04716831394434
O           -3.01327245387685       -0.38369214778873       -0.07003164813634
N           -0.93470510727534       -1.29518195840612       -0.03718151210962
C           -1.46859717300750       -2.63754210294426       -0.06041670220650
H            3.71600184956523        1.23119363126924        1.06968962464382
H            4.01205166566296        1.05098555378340       -0.67552964522129
H            2.69118626927148        2.10359170468158       -0.09146933551549
H            3.57676669400901       -1.73534377086042        0.04409193334472
H           -1.66961109422856        3.08590015240861       -0.02509021210286
H           -2.83008791563974        2.09400767563837       -0.95323375394441
H           -2.88159671662159        2.07688403847721        0.81601204387088
H           -1.16586577184262       -3.19063375600976        0.83176180966947
H           -1.14128277305025       -3.17023041195202       -0.95646692085819
H           -2.55413606731110       -2.55101012189536       -0.07462625844008
H            1.36203388797416       -2.93917696620008       -0.01421717550278
25
 energy: -5.441118034254 xtb: 6.6.1 (8d0f1dd)
C            3.24357845321974        1.18527051219022        0.08630335341426
N            2.33748520878662        0.08423808007038        0.03360776684262
C            2.63437495717895       -1.27753983853278        0.03286405503343
N            1.42436647199369       -1.93423333449629        0.00355908331407
C            0.40991391781457       -1.05032969058869       -0.00808024420639
C            0.94376604686100        0.23059064790465        0.01415766420723
C            0.12742957687669        1.39071524677845       -0.00453458823383
O            0.48669926518076        2.57092629139716       -0.00408064023424
N           -1.26558961614734        1.05353123619784       -0.03101758393707
C           -2.22677858870874        2.14780033172963       -0.04921333028998
C           -1.81504096605659       -0.19157076970874       -0.04743175256085
O           -3.01336643917864       -0.38302642120792       -0.07017989778579
N           -0.93115009748832       -1.28995095702093       -0.03727534644555
C           -1.46577615139387       -2.63288511812295       -0.06046189666552
H            3.71641561547689        1.24364473809557        1.07027559594395
H            4.01315823108103        1.06718747506022       -0.67709312514087
H            2.68173100351328        2.10555012709161       -0.09040208499512
H            3.57307520506789       -1.82374306537942        0.04531672276290
H           -1.67609875586804        3.08560582439972       -0.02486094714254
H           -2.83526225425870        2.09234004297401       -0.95259208840944
H           -2.88649405761212        2.07498137893037        0.81594934433566
H           -1.16319795900063       -3.18636729037125        0.83146795282216
H           -1.13814369505120       -3.16591620960961       -0.95611477985636
H           -2.55163314964963       -2.54743627258445       -0.07502744498378
H            1.35168665731252       -2.93585421100697       -0.01328635485709
25
 energy: -3.591354818931 xtb: 6.6.1 (8d0f1dd)
C            3.24428644526789        1.19037424219137        0.08610003710526
N            2.35312421452885        0.07513223500530        0.03256107574921
C            2.65121026332080       -1.29751744933601        0.03311388458542
N            1.42717338047149       -1.93125219400202        0.00358415091058
C            0.41493431822125       -1.04476096360047       -0.00807561829695
C            0.95434626674693        0.23375016102889        0.01366075940285
C            0.13118874214801        1.39512191295959       -0.00419388787913
O            0.48315262924860        2.57683758055279       -0.00357661756798
N           -1.26532493470836        1.05582760913263       -0.03087512967331
C           -2.23083113042876        2.14791539004574       -0.04915517287965
C           -1.81491218595654       -0.18902327119769       -0.04764854714058
O           -3.01342592041713       -0.38151763271570       -0.07058924243164
N           -0.92814375539877       -1.28478386016625       -0.03721370370946
C           -1.46262005496196       -2.62870121601010       -0.06050496408471
H            3.71619732144538        1.25374958580776        1.07018508724251
H            4.01291071486682        1.08163263645344       -0.67900631686404
H            2.67094150202684        2.10606235760008       -0.08916850483124
H            3.56885603984059       -1.90841122213146        0.04644405089437
H           -1.68346742763325        3.08730347022995       -0.02469084627648
H           -2.84038237297142        2.09205237616009       -0.95221982298779
H           -2.89185932833932        2.07454897177274        0.81541555449360
H           -1.15953369717160       -3.18219816961511        0.83120699201066
H           -1.13386339117083       -3.16158771818301       -0.95576862975582
H           -2.54884455687538       -2.54569643522442       -0.07551670405575
H            1.34291307414158       -2.93108674722182       -0.01242522282527
25
 energy: -0.781590117457 xtb: 6.6.1 (8d0f1dd)
C            3.24417366324722        1.19543592995760        0.08542159463109
N            2.36846775821996        0.06511061711122        0.03151466716898
C            2.66728072281278       -1.32002601703837        0.03337031256140
N            1.42880291000241       -1.92947354902696        0.00166470075534
C            0.41978749443429       -1.03937086894071       -0.00783975996185
C            0.96471336948310        0.23627603328646        0.01404197281615
C            0.13320356558696        1.39877526914575       -0.00262067775153
O            0.47839861460019        2.58174715739469       -0.00193643421476
N           -1.26578232355300        1.05814611093367       -0.03025647769935
C           -2.23516592623755        2.14837386192551       -0.04926404394169
C           -1.81472672056186       -0.18660461427406       -0.04767518110282
O           -3.01337403254016       -0.38061563970129       -0.07128403112143
N           -0.92504188502810       -1.27951398059637       -0.03692675547642
C           -1.45885522126948       -2.62443887140653       -0.06066606624033
H            3.71577188895950        1.26590864687874        1.06917630436248
H            4.01240423979643        1.09812570343708       -0.68120422983833
H            2.65844935269918        2.10575905998716       -0.08832283381665
H            3.56269751276364       -1.99452604630503        0.04694268218887
H           -1.69075589700496        3.08915414102426       -0.02451271027992
H           -2.84531492700064        2.09203941067976       -0.95226545882393
H           -2.89798572506196        2.07462449508750        0.81428966021374
H           -1.15561220695967       -3.17811999552339        0.83087486129436
H           -1.12897294648182       -3.15704440733659       -0.95564064608068
H           -2.54523216824220       -2.54308667262652       -0.07630175538163
H            1.33178229750638       -2.92766064325200       -0.01083503708963
25
 energy: 3.003606051639 xtb: 6.6.1 (8d0f1dd)
C            3.24480861543597        1.20019584759734        0.08578699836622
N            2.38369472282298        0.05496767496037        0.03013906140644
C            2.68283337904318       -1.34290560266514        0.03271273939032
N            1.43153620918019       -1.92798495393503       -0.00365622419018
C            0.42487578108141       -1.03520704316827       -0.00904780048049
C            0.97501924248547        0.23789959680162        0.01360086088786
C            0.13400466088526        1.40121273483436       -0.00069351809136
O            0.47064831732906        2.58588328725500       -0.00182572454633
N           -1.26688835422709        1.05928693848087       -0.03013013009866
C           -2.23916880576650        2.14848234613240       -0.04893366014027
C           -1.81460194053231       -0.18564793269642       -0.04792694570789
O           -3.01330729590316       -0.38182336070933       -0.07136180881447
N           -0.92178805060254       -1.27537686807468       -0.03727298516190
C           -1.45541745468760       -2.62110903252293       -0.06033814058547
H            3.71544222436862        1.27749159838695        1.06956849870440
H            4.01412683613128        1.11452087592525       -0.68092119671953
H            2.64870017298946        2.10576421920326       -0.08692818706574
H            3.55499439117161       -2.08044403959888        0.04824467355925
H           -1.69606320240825        3.08987159171709       -0.02443619698847
H           -2.85088493252201        2.09264076816882       -0.95122441492923
H           -2.90276974289735        2.07515617168012        0.81436902831770
H           -1.15199763878170       -3.17473471111611        0.83119816913665
H           -1.12570952530587       -3.15423520837384       -0.95503398060163
H           -2.54184042024548       -2.54023065985024       -0.07578469140014
H            1.33286542432820       -2.92519286964899       -0.01157698234165
25
 energy: 7.861033214384 xtb: 6.6.1 (8d0f1dd)
C            3.24334098373961        1.20596086390638        0.08511015437058
N            2.39294946768019        0.04957689394936        0.02900650488165
C            2.69877618906078       -1.36401424693570        0.03389149395553
N            1.43596645921566       -1.92579324323367       -0.00382850924400
C            0.43008677186996       -1.03210611702293       -0.00790887066235
C            0.98024743877120        0.24033733908241        0.01552581412982
C            0.13293593466104        1.40436054143578        0.00313932976980
O            0.46252615253672        2.59012455277031        0.00017713084990
N           -1.26804201292180        1.06080804940640       -0.02935153517875
C           -2.24328836875565        2.14826285701489       -0.04872346641937
C           -1.81366683546625       -0.18501316128874       -0.04837472820666
O           -3.01246196760803       -0.38381605697695       -0.07352443756242
N           -0.91847526773860       -1.27192479825329       -0.03691118020678
C           -1.45374010297882       -2.61753340133342       -0.06066726833951
H            3.71428330879499        1.29092086213050        1.06841846388267
H            4.01377103596794        1.13045070186599       -0.68169494653854
H            2.63732703134883        2.10583015708776       -0.08769477387946
H            3.55790023063877       -2.15977651218571        0.04600582837210
H           -1.70139514120183        3.09037066839257       -0.02385287134519
H           -2.85530621516665        2.09223227721402       -0.95102517559863
H           -2.90802863514742        2.07433089730797        0.81387536969162
H           -1.15213836057487       -3.17194943200978        0.83092615802922
H           -1.12426310757454       -3.15109212649903       -0.95509367572275
H           -2.54011551605872       -2.53558003867623       -0.07713190893439
H            1.33530083891924       -2.92122656539369       -0.01058939745895
25
 energy: 13.799092208293 xtb: 6.6.1 (8d0f1dd)
C            3.24005683445480        1.21329084699947        0.08546642518466
N            2.39377633450604        0.05358843795474        0.02748224853747
C            2.70903293074464       -1.36921007103599        0.02515187234123
N            1.44035586612710       -1.92035650836353       -0.00603154816620
C            0.43221482905057       -1.02791466972810       -0.00723098691555
C            0.97917152999049        0.24523043476527        0.01683608657517
C            0.12980997845354        1.41016950645506        0.00452000029679
O            0.45623355041216        2.59597814837923        0.00185784336533
N           -1.27028276360250        1.06485603229005       -0.02942324632396
C           -2.24968615523985        2.14885796781992       -0.04930993060080
C           -1.81317430898140       -0.18286738043472       -0.04878769683892
O           -3.01119141830881       -0.38431305703425       -0.07523195409787
N           -0.91616103980179       -1.26782460426201       -0.03616965491942
C           -1.45039826401204       -2.61356866676894       -0.05928602551283
H            3.71241080089422        1.30096286194032        1.06868359339705
H            4.01282659332675        1.14539058825390       -0.68066791465913
H            2.62533921665437        2.10699756493055       -0.08685431819749
H            3.58881620881135       -2.22045554887351        0.04629696984452
H           -1.71160316666161        3.09316852410424       -0.02420838647060
H           -2.86232631668717        2.09121261958394       -0.95111219529261
H           -2.91531801732984        2.07278446654922        0.81240618070983
H           -1.14914361531483       -3.16687049540733        0.83327898619780
H           -1.11862508736414       -3.14682967228238       -0.95308565344835
H           -2.53663988892007       -2.53043800206783       -0.07748545561227
H            1.33892958520603       -2.91498856978251       -0.01257980268936
25
 energy: 21.108818187071 xtb: 6.6.1 (8d0f1dd)
C            3.23548137240498        1.22061292359036        0.08108916715797
N            2.39196368761046        0.05990895589071        0.02428858380668
C            2.71524573357289       -1.36851242511371        0.00207540133247
N            1.44412086399939       -1.91430717947757       -0.00622641412842
C            0.43245687544976       -1.02382234462234       -0.00630578275695
C            0.97600797828941        0.25035708603580        0.01897321896597
C            0.12565730430363        1.41597435099211        0.00524161060013
O            0.44934858832569        2.60175921628208        0.00341854763814
N           -1.27274755921224        1.06810591002535       -0.02866721595211
C           -2.25544574208381        2.15029596049118       -0.04681982721622
C           -1.81316006455637       -0.18188404799120       -0.04956929729992
O           -3.01011606280445       -0.38534887488361       -0.07411691904916
N           -0.91455409750441       -1.26483478242189       -0.03787487802727
C           -1.44745687473512       -2.61035290551679       -0.06271838383543
H            3.70869809503312        1.31083539030550        1.06420831741336
H            4.00976424087845        1.15773388407125       -0.68497122032432
H            2.61422609102224        2.10885202549343       -0.09137882977022
H            3.62452368334290       -2.28094046589520        0.06655212779654
H           -1.72048792083890        3.09626433367346       -0.02137902603567
H           -2.86871189727464        2.09238456743734       -0.94798906679690
H           -2.92262484733274        2.07338296652581        0.81366141783250
H           -1.14549537815146       -3.16189485396818        0.83045956583609
H           -1.11428306127540       -3.14326095605223       -0.95629642263629
H           -2.53351095997098       -2.52555097709935       -0.08144005342879
H            1.34529791393261       -2.90865667731940       -0.01128290983714
25
 energy: 46.717683606254 xtb: 6.6.1 (8d0f1dd)
C            3.21894668459180        1.24361354571260        0.08130212149778
N            2.33899847243804        0.10046107132362        0.01821583722789
C            2.65361034494647       -1.22060652726373       -0.03879484785892
N            1.46072183011116       -1.86546468291957       -0.01662346861167
C            0.41380512448453       -0.99750714714847       -0.00255601777458
C            0.94837699081334        0.27377862964725        0.02713689143239
C            0.08932225555185        1.44205632349659        0.00820083946150
O            0.42658286929140        2.60789843439582        0.00061220741048
N           -1.27841378848977        1.08097503857393       -0.03018514256231
C           -2.26653197467098        2.15528600428245       -0.04893610350800
C           -1.82076036326635       -0.18596899920303       -0.04798905136058
O           -3.01509490731690       -0.37952332395829       -0.07527510502924
N           -0.92200325153482       -1.25498424615895       -0.03444911713959
C           -1.44752224250926       -2.60682839012568       -0.05968773768254
H            3.69493083813982        1.31714621940214        1.06370361565574
H            3.99888181079432        1.16447743505571       -0.67690147081820
H            2.61621734300409        2.13935813803352       -0.09016915072169
H            3.87837646815147       -2.70068540408390        0.10369605593862
H           -1.72991207245115        3.10016128130593       -0.02403367300875
H           -2.87793699310114        2.09120320266958       -0.94958316605722
H           -2.92919744960049        2.07223486574627        0.81328080147141
H           -1.14177063651589       -3.15845397397006        0.83118158871263
H           -1.11425646014221       -3.13661818360896       -0.95403916974153
H           -2.53350521201522       -2.52622274824059       -0.07605694948945
H            1.38500435040041       -2.86961957479470       -0.01614236053150
25
 energy: 46.596645472848 xtb: 6.6.1 (8d0f1dd)
C            3.21513685517758        1.25399985199085        0.08061064344216
N            2.33135213811858        0.11289998003131        0.01685945896971
C            2.65129678508562       -1.20407027154170       -0.03081737549641
N            1.46149424211046       -1.85492255403867       -0.01542554431680
C            0.40986101415318       -0.99099332290565       -0.00245675173504
C            0.94146870720842        0.28130777543076        0.02500985808078
C            0.08051584601177        1.44768207329308        0.00518369956039
O            0.41616249508119        2.61288936145608        0.00105586528672
N           -1.28446883818198        1.08433522119151       -0.02853534277702
C           -2.27363236923776        2.15739335907243       -0.04849452542632
C           -1.82534317263814       -0.18503343968565       -0.04676812482364
O           -3.01931291760159       -0.37939442016909       -0.07585326622684
N           -0.92480395284298       -1.25082678473307       -0.03123608561524
C           -1.44630099629648       -2.60375152738640       -0.05990004588991
H            3.69337587697585        1.32723430893955        1.06205732389701
H            3.99518213842587        1.17717545943981       -0.67833752785241
H            2.61600213448712        2.15183572873861       -0.08885959832632
H            3.93760011756563       -2.79605975594599        0.10503031123926
H           -1.73717048967184        3.10267840118506       -0.02349180131494
H           -2.88495242695787        2.09210497034823       -0.94916097209928
H           -2.93663028163175        2.07316994559214        0.81337539230220
H           -1.14063909528244       -3.15481041483619        0.83122264081632
H           -1.10984512451894       -3.13206645408124       -0.95398752628165
H           -2.53236357241462       -2.52521525055713       -0.07849825943633
H            1.39268493092569       -2.85986903842934       -0.01559198929025
25
 energy: 47.022176771418 xtb: 6.6.1 (8d0f1dd)
C            3.21087112187605        1.26521794744038        0.08035157606373
N            2.32359122814222        0.12647172648755        0.01858517489812
C            2.64899904236549       -1.18763426278189       -0.02543104396179
N            1.46194881743972       -1.84455235829112       -0.01191263210432
C            0.40626547827805       -0.98466152234610       -0.00061005014005
C            0.93419955137979        0.28903082838262        0.02518372917688
C            0.07221800790247        1.45307168817022        0.00062794739148
O            0.40634932796614        2.61896087278208        0.00100509911540
N           -1.29065751676016        1.08772541900712       -0.02987371610987
C           -2.28049411493683        2.15967598000296       -0.04936487733976
C           -1.82962655841829       -0.18351748613166       -0.04754599575404
O           -3.02331886117645       -0.37924960057597       -0.07713660049049
N           -0.92755971593157       -1.24659373105386       -0.03011740573438
C           -1.44470752218944       -2.60097362661568       -0.06050013116663
H            3.69054441285091        1.34149519121804        1.06088563782472
H            3.99138854523838        1.18787063072124       -0.67863686499710
H            2.61546097766797        2.16444165547496       -0.09093039029538
H            3.99047126230929       -2.89477685116797        0.10947628507673
H           -1.74410137866749        3.10523913456312       -0.02264207779643
H           -2.89180509836036        2.09494537700652       -0.95026180851337
H           -2.94314323531365        2.07530208424978        0.81279642074122
H           -1.13695149096414       -3.15082064588328        0.83053582818500
H           -1.10608271134236       -3.12792759167270       -0.95474550816190
H           -2.53166309194775       -2.52833814957540       -0.07815705861392
H            1.39978555554166       -2.85006339157894       -0.01618444481743
25
 energy: 47.807747304671 xtb: 6.6.1 (8d0f1dd)
C            3.20419314007616        1.27641297654357        0.08146471908975
N            2.31416149993823        0.14020504568130        0.01940123694884
C            2.64617952727846       -1.17083382498651       -0.01590040682045
N            1.46200661957981       -1.83442007384512       -0.00834768446115
C            0.40200096424896       -0.97910312039339       -0.00038163701085
C            0.92569022377694        0.29590836746740        0.02345487769027
C            0.06380807490138        1.45749231474805       -0.00197431135852
O            0.39739664756478        2.62376291811901        0.00138583095154
N           -1.29688399916609        1.09077102565693       -0.03105570250546
C           -2.28731244100054        2.16160844518700       -0.05037773665708
C           -1.83409596891561       -0.18215486077914       -0.04792093509524
O           -3.02769129909915       -0.37848284571474       -0.07664650516280
N           -0.93112757210896       -1.24340654970481       -0.03067264778207
C           -1.44361855877160       -2.59854829288056       -0.05992925804922
H            3.68518773802979        1.35062250928426        1.06136524124765
H            3.98361048218393        1.19902449530947       -0.67783012543551
H            2.61439302420231        2.17862225159479       -0.09014033603456
H            4.05396091788055       -2.99588543560286        0.11153367216849
H           -1.75202413521313        3.10813206702875       -0.02328763615105
H           -2.89798376281010        2.09518188780258       -0.95178161987227
H           -2.94981203445435        2.07566705867005        0.81177842360835
H           -1.13315043932976       -3.14622724815850        0.83143737434691
H           -1.10333196468396       -3.12378455508397       -0.95448010656553
H           -2.53109682213826       -2.53146896717829       -0.07665579675147
H            1.40674039362920       -2.84047433431137       -0.01745588120187
25
 energy: 48.740014284554 xtb: 6.6.1 (8d0f1dd)
C            3.19659514589781        1.28676421753975        0.08176069567652
N            2.30327633795130        0.15381332026331        0.02232144982908
C            2.64228126550489       -1.15311830944566       -0.00128543135029
N            1.46099102694240       -1.82423211271216       -0.00364518662369
C            0.39679823643555       -0.97390414316738        0.00061028223680
C            0.91618198104308        0.30236353079563        0.02317537271537
C            0.05427082371906        1.46069297949244       -0.00147618126435
O            0.38696082835273        2.62748942735260        0.00180022746034
N           -1.30414702810136        1.09265998922958       -0.03149898687581
C           -2.29428371215379        2.16290598965470       -0.04876654094351
C           -1.83926067971453       -0.18150964872478       -0.04837259595135
O           -3.03282001355859       -0.37791042780178       -0.07662971577803
N           -0.93586585117268       -1.24116945036035       -0.03235893162955
C           -1.44435008792041       -2.59722722485816       -0.05997453309993
H            3.67771912191721        1.35977378406517        1.06103101834669
H            3.97322668610494        1.20480370318045       -0.67824291907768
H            2.61362617741846        2.19180257676179       -0.09247280715835
H            4.12584615450970       -3.09755795817195        0.10892854528282
H           -1.75927469402243        3.10957890628504       -0.02364047822966
H           -2.90521733075416        2.09580115882035       -0.94936350977483
H           -2.95454646147993        2.07538444316162        0.81533725034487
H           -1.13117724685392       -3.14210129172141        0.83184624371291
H           -1.10175305857877       -3.12013516083163       -0.95466231987691
H           -2.53188012352629       -2.53472857276762       -0.07784172042681
H            1.41322038970436       -2.83071159458992       -0.01923594406852
25
 energy: 49.683577473114 xtb: 6.6.1 (8d0f1dd)
C            3.18861222035688        1.29501374806195        0.08207625979677
N            2.29118393604373        0.16680176020704        0.02537583580758
C            2.63773226786078       -1.13510686553630        0.00844373140444
N            1.45877996719914       -1.81464370190242       -0.00067503524219
C            0.39117149755361       -0.96923654739886        0.00046455970726
C            0.90606422504100        0.30837669050027        0.02196080121919
C            0.04443742664253        1.46333172135103        0.00022414462234
O            0.37655950140812        2.63059471650758        0.00309153135118
N           -1.31181128618235        1.09387516565778       -0.03046164650495
C           -2.30090332451535        2.16445356062016       -0.04948870535230
C           -1.84457057290507       -0.18142734672220       -0.04836841985359
O           -3.03813962585856       -0.37746038760585       -0.07684042117288
N           -0.94079921356242       -1.23994380269950       -0.03342870505676
C           -1.44539344084578       -2.59724919373448       -0.05888885445510
H            3.66831028399472        1.36362967083572        1.06143831931739
H            3.96233062694015        1.20455150899597       -0.67758263146521
H            2.61555355169018        2.20423456470900       -0.09633757701260
H            4.20463687724562       -3.19824223192236        0.09858554835254
H           -1.76634425970540        3.11141783266232       -0.02484196296587
H           -2.90886362403588        2.09775871350051       -0.95266128746242
H           -2.96225630357541        2.07765022492967        0.81291265427194
H           -1.13082592995864       -3.13924972870105        0.83414486882633
H           -1.09953906419954       -3.11789525700220       -0.95283080555695
H           -2.53318727897208       -2.53782640854548       -0.07878731265088
H            1.41939674493967       -2.82138522246889       -0.01967184063010
25
 energy: 50.519826736960 xtb: 6.6.1 (8d0f1dd)
C            3.18196600450897        1.30086578671169        0.07885163860277
N            2.27832522911104        0.17922354884848        0.02788406142099
C            2.63217150126929       -1.11673893091731        0.01406707194344
N            1.45532794145520       -1.80746050267374        0.00009911818107
C            0.38532638033079       -0.96531704422525       -0.00237068964240
C            0.89560663189172        0.31404903324033        0.01904261839185
C            0.03524316114054        1.46623531075365       -0.00141997631304
O            0.36754593298618        2.63404920034050        0.00069833416520
N           -1.31903630732994        1.09549004703040       -0.03054382110523
C           -2.30695486200376        2.16668085140737       -0.04952188815183
C           -1.84886339231775       -0.18057745782940       -0.04905769933895
O           -3.04257818135535       -0.37682813060402       -0.07704843721477
N           -0.94590184624015       -1.23929090564174       -0.03534502843373
C           -1.44767137730574       -2.59779885836126       -0.06059056508472
H            3.65880001899485        1.36426974237808        1.05885225124698
H            3.95787465621423        1.19388860393856       -0.67678520814302
H            2.62029065964406        2.21652583030199       -0.09898704734632
H            4.28802115417481       -3.29500060288956        0.08161949851633
H           -1.77228765698573        3.11342585253542       -0.02557124458184
H           -2.91574509133559        2.10097803288136       -0.95124243821736
H           -2.96523582596097        2.08205710366944        0.81551806074175
H           -1.12860173066712       -3.13936707237152        0.83116099174811
H           -1.09915353107465       -3.11693177236064       -0.95499569986041
H           -2.53565520025046       -2.54128342789811       -0.07708154747300
H            1.42636928282808       -2.81321796070959       -0.01655496388968
25
 energy: 51.262272939654 xtb: 6.6.1 (8d0f1dd)
C            3.17591205234719        1.30470000085678        0.08038509370247
N            2.26602277981790        0.18946935483304        0.03142755374997
C            2.62799887386290       -1.10096462921663        0.02179576612633
N            1.45265987319063       -1.80304287824951        0.00132996174424
C            0.38212995837653       -0.96360181270066       -0.00655042242110
C            0.88625733000766        0.31826312059027        0.01609925462970
C            0.02859153858841        1.46871045846670       -0.00290460890001
O            0.36723100962477        2.63553641455542       -0.00130155362601
N           -1.32406540621682        1.09802880037221       -0.03123211745485
C           -2.31144207222196        2.16878936548565       -0.04862199324309
C           -1.85074579572179       -0.17884328403380       -0.04940789262874
O           -3.04456535134497       -0.37572649091979       -0.07535009666606
N           -0.94922664218455       -1.23866382154930       -0.03820321093456
C           -1.44973582587047       -2.59724859563533       -0.06160491388880
H            3.65395020561685        1.35783110698013        1.05970168546255
H            3.95068971798397        1.18323648409983       -0.67513574826497
H            2.62453501454455        2.22676507229120       -0.09681172186375
H            4.38071066070297       -3.38282787747498        0.06115720737039
H           -1.77643814162848        3.11529025400590       -0.02311155551780
H           -2.91772952430123        2.10240121522495       -0.95168462799792
H           -2.96834759136663        2.08242922820951        0.81634501958802
H           -1.12946046491732       -3.13914445827642        0.82983662988263
H           -1.10157023950199       -3.11881421559114       -0.95479914357758
H           -2.53741269743409       -2.54137103602871       -0.07782742471243
H            1.42708025378332       -2.80869388143397       -0.01031516937711
25
 energy: 51.620259835833 xtb: 6.6.1 (8d0f1dd)
C            3.17366450066644        1.30264444933249        0.08231501466922
N            2.26122319183593        0.18887814125146        0.03798199888431
C            2.61942058397436       -1.10216753585217        0.03129065801591
N            1.44596640945858       -1.80585883050711        0.00324896907133
C            0.37762539611353       -0.96469831526505       -0.00769925319297
C            0.88266295131297        0.31752610048691        0.01555379918425
C            0.02753944210858        1.46880074150554       -0.00357738256265
O            0.36984788817124        2.63438321017839       -0.00020995107020
N           -1.32582804240013        1.09932123029751       -0.03181576549466
C           -2.31178722855122        2.17106543858339       -0.04928509441198
C           -1.85296813042200       -0.17769030024179       -0.04990264459297
O           -3.04640806479187       -0.37501845871003       -0.07527470192066
N           -0.95242108840850       -1.23905051680444       -0.03816178222594
C           -1.45205828851010       -2.59771474814586       -0.06118041895035
H            3.65464684911151        1.35722952684915        1.06023336354354
H            3.94589577173944        1.17633624727567       -0.67525474393592
H            2.62453985478864        2.22600772570929       -0.09578069408727
H            4.48670457621354       -3.38313098503826        0.05589625329352
H           -1.77647749121274        3.11785313241552       -0.02353029598570
H           -2.91807641465948        2.10443591019970       -0.95229604835468
H           -2.96968608162522        2.08423752677928        0.81494644221972
H           -1.13156151505489       -3.13916273576422        0.83056710712835
H           -1.10347189448602       -3.11956174805947       -0.95416422312561
H           -2.53970612391033       -2.54293687300222       -0.07791339490371
H            1.42292725351015       -2.81269954472965       -0.00895329900035
