72
 energy: -99.523458476367 xtb: 6.6.1 (8d0f1dd)
N           -1.63895442635119        3.06927626419514        2.25813957108707
C           -1.61445968042404        2.31368021255177        1.26232900978462
C           -2.74762451166015        2.13426977263244        0.29255709835824
C           -3.24614604280658        0.66556039941534        0.38076586383203
C           -4.11246165876018        0.09966143764463       -0.55573728670321
C           -4.62902540573513       -1.21745150381180       -0.50052046407590
O           -5.52531709813271       -1.61666659072977       -1.45900855212202
C           -5.99983266742018       -0.67926833201969       -2.41347759334453
C           -4.23604493289846       -2.05657284170845        0.55411632288850
O           -4.65595891374102       -5.12596558646894        0.56452311425445
C           -4.88476934530677       -5.01794832768658        1.84296608290294
C           -3.37104240774089       -1.51411187856654        1.47311587247521
C           -2.88954425157524       -0.19469036135002        1.41243057882625
C           -2.15186333061127        2.46084823272962       -1.10752737386310
C           -1.22605799564615        1.39237595698694       -1.72180573099375
C            0.08894204583367        1.29301793819217       -1.04687310421492
N            0.59549180411901        0.13326574680684       -0.59331242972753
C            1.98585292468955        0.04764055524472       -0.20448852753772
C            2.92341474534237       -0.42995833845644       -1.34074070159872
C            4.35478573283780       -0.38994560973009       -0.87963434906315
C            5.10802246130162        0.75897651607456       -1.02200594230093
C            6.41938196922668        0.81567111240401       -0.56869722632328
C            6.99861885413076       -0.28498827537756        0.03992253518888
O            8.27115363201992       -0.34945303381431        0.51683562181122
C            9.09775041611888        0.78019155539762        0.38089872031335
C            6.23618449039368       -1.46719355449532        0.19468591953925
O            6.88922963167253       -2.49418190385953        0.80113340522781
C            6.21918647459143       -3.71490937414650        0.97847909929177
C            4.93111646956142       -1.50004068200875       -0.26084390903036
C           -0.10634349605674       -1.13191792605363       -0.76006994454354
C           -3.91780918224404        3.13912016112879        0.54029168055520
C           -4.57975342378576        2.88281040200896        1.89269789920908
C           -3.51108346482860        4.62274571875374        0.47228967824444
H           -4.42935226500536        0.73591103582913       -1.36341179462678
H           -6.46746156570369        0.21049272909555       -1.96922737271548
H           -6.76303682825830       -1.19219602189541       -3.00161649451253
H           -5.20602310015910       -0.34043562951523       -3.09185758027527
H           -4.74432323868120       -3.84804351292829        1.91173714253849
H           -5.89929321678205       -5.31988030654633        2.12524251665773
H           -4.17217604339861       -5.68616553566531        2.25658330707143
H           -3.04046122659664       -2.11882185028409        2.31087032718524
H           -2.24594656917127        0.14309185849337        2.20962607104531
H           -2.97465545403107        2.61783726101773       -1.81505624483759
H           -1.58078020477460        3.39223850200322       -1.00439851406866
H           -1.75133891586743        0.44977977596646       -1.75043206683157
H           -1.05263085352018        1.70711498399449       -2.76308376951885
H           -0.71785358068767        1.74555244455687        0.94199465539212
H            0.74486651058615        2.15406321823736       -1.01196678007919
H            2.08832643019228       -0.64790630841813        0.64106465674423
H            2.30937263356193        1.03888907477740        0.13059774984929
H            2.79315880460665        0.22691713470869       -2.20321370689514
H            2.65498097122204       -1.44731716570315       -1.63414205644088
H            4.67877780711362        1.62614121157530       -1.50117352647640
H            6.97407160554770        1.73096644847426       -0.70670556417227
H            8.69445861334957        1.64680505503912        0.91726702658851
H            9.24806576276948        1.04783798401412       -0.67137828440627
H           10.05230758781501        0.49457972773720        0.82181726426917
H            6.93985729899151       -4.37561950470052        1.45894051772203
H            5.34413101986699       -3.60579696805844        1.62825447913108
H            5.91295327839016       -4.14507821926678        0.01941152421055
H            4.34507904891824       -2.39846703249150       -0.14677601361002
H           -0.26324085435314       -1.36851936721936       -1.82267593798207
H           -1.08040387428754       -1.08305965290702       -0.26757008196695
H            0.45976275808074       -1.93645996705321       -0.29060975056254
H           -4.65177794744091        2.94696313325334       -0.25369822888119
H           -3.87619607129919        3.09488636521112        2.68962487664894
H           -4.91369113414088        1.85584081383636        1.96910153300103
H           -5.45090835555160        3.53445162168579        1.99919505618774
H           -2.74201718864956        4.83728319973050        1.21662157127085
H           -3.15156468198209        4.92299663897961       -0.51091845765275
H           -4.38552731834133        5.23876878280144        0.68799994218628
H           -0.77424173354322        3.14182591273394        2.78549884339478
