25
 energy: -42.192081311019 gnorm: 0.007011662133 xtb: 6.6.1 (8d0f1dd)
C            3.28792911482765        0.92696646230271        0.10307312575440
N            2.37900505536295       -0.04377060887596        0.02610236425816
C            2.58790928522714       -1.37111102130603       -0.12238248307134
N            1.38768782900444       -2.03841016346319       -0.14272807959057
C            0.39772608317074       -1.14417253907830       -0.00143617337099
C            0.99088906928279        0.12986488072698        0.07760423002469
C            0.19107603922655        1.26526770594638        0.03074205607292
O            0.63683701252016        2.50985088748066       -0.06513124619378
N           -1.15683836064006        1.06438422916852        0.04593287187815
C           -2.07258139901235        2.19459635373163       -0.00061762992162
C           -1.78133287589721       -0.18915782747028        0.07456671715915
O           -2.97341227093738       -0.29202152342692        0.11285782556427
N           -0.94444413880006       -1.31091370632908        0.03379153919970
C           -1.54136523636458       -2.63249015584454        0.02097945089338
H            3.04844962633289        1.87696522067335        0.53342817958325
H            4.31537966027953        0.68882771249283       -0.04861747406416
H            1.59979089675497        2.52119820545103       -0.22042993594167
H            3.54515110366578       -1.83393571499407       -0.21609447740267
H           -1.50475329899355        3.11888009016702        0.00165772394507
H           -2.68379995970903        2.12995372711166       -0.90086348267063
H           -2.73706470776975        2.15670305673829        0.86205745829214
H           -1.21613146743915       -3.20118285370760        0.89248148649363
H           -1.27450165599000       -3.16226196869690       -0.89365484465380
H           -2.62229602133978       -2.50720791881276        0.05874349149497
H            1.30112213133861       -3.03858398838580       -0.23089107583544
