  72
        -99.35341607
 N         -1.8373531211        2.7415153479        2.5171342496
 C         -1.8464868179        2.1409165168        1.4229490453
 C         -3.0305684743        2.0615323269        0.4994173799
 C         -3.5340486989        0.6270641618        0.4420465095
 C         -4.5045916827        0.2708186995       -0.4965529516
 C         -5.0092320130       -1.0172307397       -0.5634100995
 O         -5.9532511359       -1.4403473834       -1.4281000878
 C         -6.5758002276       -0.5089726639       -2.2815935849
 C         -4.5217958689       -2.0075320919        0.3327243408
 O         -5.0622745293       -3.2334625497        0.1913268670
 C         -4.6939272221       -4.2538642526        1.0899416349
 C         -3.5588665398       -1.6469336017        1.2618587832
 C         -3.0750206100       -0.3458079698        1.3166671774
 C         -2.5131500788        2.4984728768       -0.8963793091
 C         -1.6337002468        1.4533963263       -1.6055506986
 C         -0.2822704332        1.3197011812       -1.0185558591
 N          0.3505159436        0.1758562514       -0.8002482116
 C          1.7439169699        0.1700004406       -0.4203556224
 C          2.6637368499       -0.1157759370       -1.6229840592
 C          4.0979562598       -0.0978379164       -1.1758053618
 C          4.8498389584        1.0678969024       -1.2345765506
 C          6.1597364371        1.1047867023       -0.7925139227
 C          6.7496137300       -0.0461621443       -0.2671581021
 O          8.0036856113       -0.1370574887        0.2008530897
 C          8.8540832185        0.9858244306        0.1522956393
 C          5.9909996837       -1.2232357135       -0.2074534776
 O          8.6245832460       -3.2379333051        1.1586198574
 C          7.6706109889       -3.9333640451        1.3315834778
 C          4.6906351909       -1.2450198602       -0.6517978985
 C         -0.2864133772       -1.1032998207       -1.0052203577
 C         -4.2125687553        2.9777210498        0.9356811146
 C         -4.8126166883        2.5216240173        2.2634228268
 C         -3.8298643753        4.4524752017        1.0223153198
 H         -4.8825709168        1.0172070984       -1.1752089903
 H         -7.0575647523        0.2937921393       -1.7154583837
 H         -7.3332914096       -1.0715239586       -2.8237064916
 H         -5.8659888255       -0.0799010166       -2.9963223476
 H         -4.9293715215       -3.9819734448        2.1230615509
 H         -5.2827700856       -5.1225467886        0.8022563228
 H         -3.6293264087       -4.4954871832        1.0087463867
 H         -3.1845658876       -2.3716582401        1.9665188460
 H         -2.3501810458       -0.0967862786        2.0761686532
 H         -3.3694358916        2.7083069441       -1.5362717172
 H         -1.9485315803        3.4251840870       -0.7879020388
 H         -2.1547930587        0.4981533508       -1.6382134123
 H         -1.5055526483        1.7993872594       -2.6396418529
 H         -0.9611761177        1.6337234429        0.9914316722
 H          0.2946429144        2.2234832753       -0.8860688453
 H          1.9032737556       -0.5924901632        0.3466244151
 H          2.0082625130        1.1410114310        0.0037091564
 H          2.4963445310        0.6466028070       -2.3855956827
 H          2.4175155804       -1.0902368358       -2.0471295573
 H          4.4109281454        1.9665731179       -1.6433523059
 H          6.7137618113        2.0270481296       -0.8615297910
 H          8.4620141954        1.8110919809        0.7545630292
 H          9.0104914865        1.3242587347       -0.8761216329
 H          9.8008513801        0.6503186705        0.5708119213
 H          7.3531684888       -4.7061727079        0.6101527260
 H          7.0307284871       -3.8587840265        2.2274345888
 H          6.4602415884       -2.1078607299        0.1897847369
 H          4.1271346752       -2.1656050944       -0.6042179139
 H         -0.5090639072       -1.2691308328       -2.0612299681
 H         -1.2179316448       -1.1608968599       -0.4365856022
 H          0.3774313032       -1.8930172888       -0.6634318166
 H         -4.9848775502        2.8741984141        0.1649647350
 H         -4.0812397120        2.6266517745        3.0582539477
 H         -5.1348146167        1.4843264307        2.2141918138
 H         -5.6755906536        3.1370827126        2.5032381555
 H         -3.0474379976        4.5968045487        1.7608974646
 H         -3.4968023847        4.8435468313        0.0646163133
 H         -4.6984475132        5.0276421395        1.3319367706
 H         -0.9726853964        2.7543275354        3.0486133142
