25
 energy: -42.103027447783 gnorm: 0.002293484256 xtb: 6.6.1 (8d0f1dd)
C            3.25278186354433        1.23771921587037        0.01691452266174
N            2.31754096959724        0.14492315890993        0.05086211821740
C            2.60789231054343       -1.15067717055253        0.08800168401515
N            1.47352958739291       -1.87860239656048        0.12487940321583
C            0.41246158736101       -1.00650895390118        0.11405183823562
C            0.94967402660066        0.27489919541463        0.06609838732699
C            0.12180289462287        1.46015984806139        0.02105332406204
O            0.51908045988224        2.60193987406817       -0.02228319477930
N           -1.23710485349768        1.12585912836208        0.02697796222200
C           -2.19200757819697        2.22929923218637       -0.02617469045880
C           -1.81201933953596       -0.11416144295053        0.07389450242646
O           -2.99319323343038       -0.30429639684209        0.06853878257690
N           -0.91592933759318       -1.26630572982465        0.13491319350712
C           -1.47522190567919       -2.48336526286429        0.21058389394668
H            3.75441727311190        1.33685372183363        0.98052300578339
H            4.00387860465892        1.06887063297053       -0.75385229870226
H            2.70904708059966        2.15858220339007       -0.19124834044169
H            3.59852085974684       -1.56243360632107        0.08062751893062
H           -1.63029665882131        3.16001444309605       -0.02016090511057
H           -2.79105470176068        2.15643746284580       -0.93290904030068
H           -2.85726904998269        2.18193372747368        0.83461779361046
H           -0.87209727468620       -3.36642955519856        0.26986843607390
H           -2.66309046783341       -4.77076865308290       -1.55684506255147
H           -2.54766667633597       -2.52809511620252        0.22232838421367
H            1.42675507379157       -2.88760901858192        0.14991039921876
