25
 energy: 131.346470881683 xtb: 6.6.1 (8d0f1dd)
C            2.07945221187355        1.85639767973972        0.03729054626978
N            2.10632217804673        0.46394695173268        0.05517448319079
C            5.14389525822540       -0.72898098295390       -0.22647377786234
N            1.09829981369062       -2.26316699824444       -0.01871722758695
C            0.31589594711232       -1.27733693517177       -0.00399143621589
C            0.85586302301035        0.05925748517499        0.04524286214196
C           -0.03663282772481        1.13878564674964        0.05677958296174
O            0.64836504511330        2.29895672963709        0.06620326242058
N           -1.38206483779825        1.03568521609473        0.05393046440428
C           -2.28199666424332        2.18518574090609        0.09726577487478
C           -1.96303670706787       -0.23197893831477       -0.01388935179723
O           -3.17174899424565       -0.33180744077156       -0.04173021952695
N           -1.10655346594720       -1.31073080646030       -0.04080243753005
C           -1.72613041776420       -2.62610423312868       -0.10984898751650
H            2.42206851601123        2.33248801953915        0.92170153464256
H            6.27821362787945       -0.75629012271020       -0.30710736536442
H            2.61901900879079        2.30954389341527       -0.83185048835840
H            4.83725591967860       -1.77999501824705       -0.12364111770193
H           -1.68713861917567        3.09032705154697        0.17062831491810
H           -2.90437896208793        2.20574176328501       -0.79945626738374
H           -2.94338474953727        2.09775177847564        0.96349634840784
H           -1.46440050253013       -3.22826058404244        0.76590589706764
H           -1.40381021454593       -3.15068459399003       -1.01595326179614
H           -2.80222795432220       -2.47804825167319       -0.13078691835750
H            0.70072000854718       -3.19215014887042       -0.05483514037232
