25
 energy: -1.666120244627 xtb: 6.6.1 (8d0f1dd)
C            3.26511698462723        1.21529313350568        0.06149848031371
N            2.35558187052677        0.09756572767060       -0.00480313777168
C            2.71425007606834       -1.27116524926413        0.01553991830701
N            1.48269175242454       -1.96307306068699        0.00748074427635
C            0.44156768592953       -1.08767883986162       -0.02323941874086
C            0.95518960522834        0.19725015827975       -0.02884975081132
C            0.12173301579874        1.34065923794089       -0.00874919677996
O            0.48198472059292        2.51745308877779        0.00942928569330
N           -1.27474853377009        1.01923803922751       -0.01981814043487
C           -2.21841612764436        2.13104602297548       -0.02286073047120
C           -1.82252739558499       -0.22292804081003       -0.05012625591824
O           -3.02427675277065       -0.40695454020457       -0.06691638943728
N           -0.92142953110067       -1.31475443757916       -0.04741859027894
C           -1.49712141019020       -2.63891257394026       -0.07132833741748
H            3.55385194795081        1.39972174112794        1.10900100826560
H            4.20918916154677        0.90686740068008       -0.44995863222466
H            2.73676568341283        2.10097917620663       -0.29172340732074
H            3.70724989648753       -1.67991251701036        0.00402627298680
H           -1.64529330579110        3.05722248659398        0.00299208832626
H           -2.83209273023422        2.10363610793436       -0.92443972561092
H           -2.87804482634743        2.06743592697674        0.84388675891573
H           -1.21421365577245       -3.20497338944603        0.81681191541513
H           -1.19062920371310       -3.17360209887645       -0.97167009722591
H           -2.58261146096914       -2.51907600265996       -0.08102651548867
H            1.31744867260195       -2.95703626736159        0.00984830024264
