25
 energy: 4.914422239794 xtb: 6.6.1 (8d0f1dd)
C            3.26631157461313        1.23692237623852        0.06359973968080
N            2.37848606312184        0.09859693232880       -0.02142965444873
C            2.77688057681773       -1.27556806886105       -0.00295666134596
N            1.52020392934753       -1.97872136076223        0.00107231766934
C            0.46596215339677       -1.10762878658425       -0.02677186981479
C            0.97351116952785        0.17508321819193       -0.03267457580067
C            0.12591458566428        1.31105784084001       -0.00868137419467
O            0.48488210244794        2.48554378388251        0.02129841444962
N           -1.27753374145979        1.00163620954898       -0.01632935451846
C           -2.21516698543507        2.12219151764195       -0.01092431735044
C           -1.82066492577779       -0.24079398470183       -0.05068486367808
O           -3.02461572065906       -0.42332800241984       -0.06814694659281
N           -0.90715714409583       -1.32767194498130       -0.04774393805146
C           -1.50751566661936       -2.64043438205959       -0.07498288836202
H            3.47112155807968        1.48454196695308        1.12240566706202
H            4.27972733777389        0.86373796233568       -0.31837867815552
H            2.75796468660364        2.09744489963060       -0.37779476793334
H            3.77794404510531       -1.67989549317905       -0.01945080006068
H           -1.63391534816744        3.04400518206150        0.01622334098103
H           -2.83236174761177        2.11092389135021       -0.91145791655372
H           -2.87608395895958        2.06292188303874        0.85609380593750
H           -1.23212401334945       -3.21473835743201        0.80840847882316
H           -1.21365500866972       -3.17495866441478       -0.97859466969990
H           -2.59254649581467       -2.50198696306484       -0.07861701190144
H            1.30185379187608       -2.96614501205110        0.03627317350374
