25
 energy: 129.353981667424 xtb: 6.6.1 (8d0f1dd)
C            2.04543062314318        1.88340550703676        0.07890318781115
N            2.08698604236504        0.48683154074959        0.05975047832242
C            5.18355356378742       -0.73087685490392       -0.20282466567338
N            1.06479293288868       -2.28062532039744       -0.01940748726311
C            0.30125745161055       -1.27903855372646       -0.00900456699927
C            0.83834923412250        0.06512569044179        0.03926234689393
C           -0.05218873099650        1.14682854141878        0.06217121054753
O            0.62535481139910        2.30058225862850        0.09132799718321
N           -1.38963540053308        1.04333933209904        0.05424976678282
C           -2.28034157229072        2.19053354019342        0.09461719515466
C           -1.97215719625849       -0.22837328537265       -0.01448905675153
O           -3.17961150653006       -0.33034109013465       -0.04308820968193
N           -1.11776609907876       -1.30736955692639       -0.04279414794010
C           -1.74036822159210       -2.62329786227036       -0.11073702051110
H            2.44358516501479        2.32608527168869        0.97980840575874
H            6.26243591087368       -0.68401162941970       -0.30022605856381
H            2.56456862788423        2.35523780371514       -0.79086080949350
H            4.85789251434125       -1.77328355675599       -0.13903047384901
H           -1.69132340809160        3.10368091425742        0.16222306865015
H           -2.90209283010973        2.20635304606260       -0.80320847090804
H           -2.94408218765184        2.11091893612900        0.95947034246493
H           -1.45913409659204       -3.21929596835386        0.76180356058443
H           -1.42390343522010       -3.14321930011126       -1.02201814366680
H           -2.81972530041587       -2.48890221040043       -0.12712243624807
H            0.65067720054233       -3.20497658312550       -0.04972631168869
