  25
        -42.09384834
 C          2.9462141719        0.4974105567        0.3078570667
 N          1.8799843270       -0.2097986085       -0.0634658790
 C          4.1643066637        0.3741605604       -0.2614618148
 N          0.7135277737       -2.6773902732        0.0792345709
 C         -0.4982730438       -0.7851463225       -0.0123267512
 C          0.6227257799        0.1043612627       -0.0109509780
 C          0.0572573573        1.4385939314       -0.0331377701
 O          0.6829876459        2.5903332382       -0.1103267238
 N         -1.2716620171        1.3728556265       -0.0110238553
 C         -2.1830118542        2.4854798602       -0.0320617354
 C         -1.7098987386        0.0168131781        0.0169737070
 O         -2.8768873907       -0.2835538451        0.0749575946
 N         -0.4194824396       -2.1341672598        0.0391204529
 C         -1.6458820092       -2.9121085933        0.0208106491
 H          2.8396831110        1.1466018114        1.1842430537
 H          4.9994486449        0.9371270028        0.1233457644
 H          1.6468957732        2.4931525254       -0.1857524385
 H          4.3370851130       -0.2581220924       -1.1160697077
 H         -1.7023198697        3.3565160057        0.4077905244
 H         -2.4764986075        2.7139325415       -1.0582239025
 H         -3.0736130400        2.2089558234        0.5310051478
 H         -1.5219029225       -3.8061162988        0.6320789395
 H         -1.8625728229       -3.2188923685       -1.0050483838
 H         -2.4882487225       -2.3263401836        0.3840824506
 H          0.6928095492       -3.6947577869        0.1056187563
