72
 energy: -99.695636351825 xtb: 6.6.1 (8d0f1dd)
N           -1.51899944653908        2.83457473127165        2.24462880057992
C           -1.57086527884147        2.03265293308711        1.27356908618884
C           -2.75495230360525        1.92369489052408        0.34950786289662
C           -3.31720855752892        0.51156119415310        0.42933902347981
C           -4.26620877840759        0.08335352797738       -0.50181182930004
C           -4.81537340934230       -1.18295355842751       -0.44231799614357
O           -5.74847287882405       -1.67801975077983       -1.30536388441718
C           -6.24379252754592       -0.84402746352397       -2.32049917452098
C           -4.41129967252899       -2.07266752888162        0.57741391247211
O           -5.00698901826501       -3.29963761164915        0.55387299152400
C           -4.68669668154032       -4.22118757623573        1.56294243678847
C           -3.47583216297391       -1.64724899534605        1.50114484187200
C           -2.93923213072955       -0.36745963448151        1.42752677712386
C           -2.23394867822446        2.19855946692108       -1.08506307480946
C           -1.31195894133433        1.11074701583395       -1.65824893788918
C            0.05056936405137        1.21210230241539       -1.09251646391452
N            0.85193112556563        0.14137618297018       -0.75099188665011
C            2.22975283873329        0.36642863900588       -0.45590215717092
C            3.16831607123113        0.19024973969645       -1.67588090636816
C            4.57249895423728        0.05560387795165       -1.19036520309400
C            5.59081424506933        0.97103252788175       -1.35433384032193
C            6.84378240990629        0.73217241974392       -0.79818483851653
C            7.10343985177372       -0.39359056567112       -0.01816795158331
O            8.31096064124784       -0.66602865678286        0.56943561544758
C            9.37345891568378        0.24822438620716        0.40566770026891
C            6.03674477410991       -1.30354113545983        0.18491319228289
O            6.14006079325997       -2.41735820964252        0.96665956664418
C            4.95094845507285       -3.02397855972270        1.47503171718076
C            4.83848237379385       -1.06998777154919       -0.43983876389241
C            0.41351845578723       -1.21886789428244       -0.88377759365284
C           -3.90236603871172        2.91946547302947        0.68210175248054
C           -4.50471368782502        2.64193649044362        2.05836281443692
C           -3.47477040345542        4.38455844879063        0.59831898411621
H           -4.58258261374900        0.75787984421379       -1.28051960673192
H           -6.72954672645972        0.04865530912711       -1.91228356991101
H           -6.98283604304212       -1.44227004815349       -2.85184566827132
H           -5.45689519138287       -0.54112150274453       -3.02005878971873
H           -4.94706875808260       -3.84278158836503        2.55752546971440
H           -5.28528007184584       -5.10523109941229        1.34800001722085
H           -3.62513150859779       -4.49166308910459        1.54491784082388
H           -3.15558065836777       -2.29969219460476        2.29834201429449
H           -2.22977593683740       -0.06174992228475        2.18075193737917
H           -3.08997719958489        2.31960487668563       -1.74971945024057
H           -1.68435386511233        3.14059560977305       -1.07832319301015
H           -1.74825525393192        0.12667483263563       -1.48277819784109
H           -1.27637749983041        1.26041698044138       -2.75020629138554
H           -0.74637541917559        1.36635941005724        0.98038930682290
H            0.52362817411248        2.17631418408200       -1.05204007888356
H            2.52534033207732       -0.34753821309164        0.32243241914336
H            2.35292689762624        1.37403324481979       -0.05088924391323
H            3.06144301851594        1.03048083884415       -2.35775721229170
H            2.88094294687823       -0.72912917008245       -2.19420760370751
H            5.41471735596878        1.86682873211926       -1.92909510801454
H            7.62059921987961        1.46313691987912       -0.97404688845140
H            9.13375599054549        1.23515753798917        0.81783089724503
H            9.66586768936041        0.36100313466518       -0.64474522588506
H           10.21346798642987       -0.17030691975906        0.96112008149930
H            5.33974938591749       -4.00622550435519        1.75223997434026
H            4.63424939809377       -2.51917047793047        2.38618382327645
H            3.94848317966633       -2.94030173390756        0.93017419685909
H            4.05785224816955       -1.80040495543879       -0.34112592220508
H            0.41513318819272       -1.57100914017475       -1.92391981622478
H           -0.59499359910364       -1.33225871773284       -0.48453320996392
H            1.08264848277893       -1.85602418714175       -0.30481597953616
H           -4.68738022997861        2.75346154031532       -0.06644482711662
H           -3.75934914300253        2.81708647343634        2.82708480102826
H           -4.85323196322205        1.61452681107614        2.13047276108847
H           -5.35008210733879        3.30475032558073        2.23042826592074
H           -2.65562160395071        4.57049243171166        1.28508808456064
H           -3.16870094782064        4.66024562060490       -0.40783374172135
H           -4.31257676737067        5.01875242709093        0.87920052050278
H           -0.65389090237933        2.80949275263447        2.78094259193463
