  25
        -42.07912442
 C          3.2284989889        1.1208024654        0.0295906120
 N          2.2753134067        0.0432583182        0.0029321476
 C          2.5399228440       -1.2550798718        0.0013639576
 N          1.3894706546       -1.9594336589       -0.0034266674
 C          0.3516692861       -1.0756200848       -0.0039774469
 C          0.9060919780        0.1991561001        0.0005946281
 C          0.1060991117        1.3876036042       -0.0153739028
 O          0.4902293224        2.5360137872       -0.0446418984
 N         -1.2930067055        1.0736786684        0.0028508391
 C         -2.1533728005        2.1000871294        0.0055162541
 C         -1.8608295921       -0.2340514492        0.0115983401
 O         -3.0493076443       -0.3951061079        0.0321969555
 N         -0.9748534564       -1.3089138848       -0.0093544853
 C         -1.5123339066       -2.6575157450       -0.0281411843
 H          3.6704854171        1.2094558605        1.0232410733
 H          4.0219659747        0.9420392048       -0.6945050375
 H          2.7124296177        2.0510480512       -0.2060007523
 H          3.5201422821       -1.6906294884        0.0017773995
 H         -3.2298382570        5.2884993901        0.2496798358
 H         -1.7458476324        3.0960857094       -0.0041573732
 H         -3.2067695430        1.8922380150        0.0189090320
 H         -1.2214606859       -3.1977608584        0.8730051113
 H         -1.1694958411       -3.1896376582       -0.9156294385
 H         -2.5982354486       -2.5797670277       -0.0579277525
 H          1.3213906998       -2.9675668192       -0.0075568931
