25
 energy: -42.051189505393 gnorm: 0.002771512141 xtb: 6.6.1 (8d0f1dd)
C            3.46450294645653        0.42357874538045        0.00856463291834
N            2.57779442579231       -0.70809226436033        0.01510859179167
C            2.95942484530512       -1.99161791729076        0.01611914944306
N            1.86106308074413       -2.76505373281935        0.02725889141506
C            0.76155027959689       -1.92061401699324        0.03371173937892
C            1.22261556260327       -0.60715331347899        0.02503144503348
C            1.40580741570334        3.26768894645274        0.02555440728620
O            0.72537172961620        4.17315354789462        0.00327437956194
N           -3.10002107439120        2.13305322921098        0.19718072476322
C           -3.73420283613600        3.34042298388541       -0.12409076658892
C           -2.72357504860963        1.03183119740790        0.01812971986049
O           -2.28192183523395       -0.04866755898159        0.00518418651874
N           -0.53625820167139       -2.32465110323767        0.04604126059242
C           -1.01450000530794       -3.55323311925788        0.06680657795421
H            4.11960887424245        0.39770684908860        0.87980293742365
H            4.08030792986710        0.42016431399440       -0.89150491739544
H            2.86056811649599        1.33117944280525        0.03229804955702
H            3.96907885585863       -2.34902478878134        0.01069641753983
H           -2.99147533494191        4.05619921636101       -0.48173584164579
H           -4.49802204674681        3.19445565851884       -0.88930619037140
H           -4.19903299964874        3.73342443385711        0.78157928987650
H           -0.36561099250600       -4.40923526641245        0.07768120529981
H           -1.19271354758120       -1.53823454391683        0.04185899046956
H           -2.07678997095406       -3.69511222282475        0.07626429721689
H            1.86686134554566       -3.77393017490985        0.02966244000056
