25
 energy: 54.919365847887 xtb: 6.6.1 (8d0f1dd)
C            3.45429994162390        0.94059607502033        0.14879716053087
N            2.52286518854390       -0.15327368403140        0.03430669305374
C            2.83682292876816       -1.43703016204321       -0.10108260559832
N            1.69635181712187       -2.17337296308637       -0.11939984793156
C            0.62691889473599       -1.31100080346862        0.00610225670266
C            1.16838117799946       -0.03518924532882        0.10246788468943
C            0.27898676954301        1.14238659859585        0.24213062376395
O            0.72351206676486        2.28035094348412        0.26965835054025
N           -1.01503272414230        0.80480518457238        0.32804433465440
C           -3.54882673854396        3.49897310692590       -0.41572233150258
C           -1.60688597511558       -0.34389497976973        0.22035567504451
O           -2.77153618107461       -0.63611106056190        0.21129563378415
N           -0.66778696067067       -1.56606469162386        0.03580664031757
C           -1.21569567305723       -2.88767167512235       -0.00518130281483
H            3.97673415920833        0.92623026948826        1.10319755495539
H            4.18082818243880        0.89982479092728       -0.66185848474710
H            2.89292329624001        1.87228171287011        0.10976833707821
H            3.82481150121840       -1.83370157603222       -0.19620275656677
H           -2.75318832700294        4.21166945294251       -0.38871391216441
H           -3.87722424655866        3.09385787872633       -1.34921595175817
H           -4.03091572925320        3.20192638646622        0.48795269843631
H           -0.85410548473696       -3.48006678933479        0.84035427213520
H           -0.95150521711584       -3.38189114077927       -0.94451929930626
H           -2.30030505203885       -2.79381510746795        0.06991920462955
H            1.61703489951278       -3.17023168485285       -0.23615194504999
