25
 energy: 14.034508110566 xtb: 6.6.1 (8d0f1dd)
C            3.33111841546002        1.10039385601917        0.12771466097138
N            2.33693935670457        0.07304911965228        0.01828675439995
C            2.62579527435055       -1.28685049019139       -0.03895035607380
N            1.42621113774727       -1.96325713798112       -0.10564784054986
C            0.42314156117953       -1.06490536317384       -0.02653927557022
C            0.92140935492911        0.22684002780875        0.05527387088039
C            0.05526694851278        1.38588122495185        0.10823565017691
O            0.45830414870785        2.54570494376940        0.20732302802078
N           -1.43058068402068        1.15053558777939        0.00259657847062
C           -2.47081732244502        2.32348994853240       -0.20883711088153
C           -1.86500470514804       -0.16167360057499        0.07006571923628
O           -3.03610815458750       -0.47335138791702        0.12689015404941
N           -0.92058319422601       -1.26672530725003        0.04789944850510
C           -1.37862917011603       -2.64930005317952       -0.02214503444079
H            3.87446314567194        1.05026234424264        1.08423950727463
H            4.07271831601205        0.99520457891142       -0.67224369061857
H            2.83445518576242        2.06094231250930        0.05039526290618
H            3.59564621650715       -1.73589190552927       -0.10723694231572
H           -1.94651910469849        3.28211397677889       -0.22347676433684
H           -3.05493052464553        2.26437065746772       -1.13571845457977
H           -3.15458183511805        2.34293919137552        0.64025735185692
H           -1.01247121302009       -3.23108603904433        0.83158289398484
H           -1.02388895480784       -3.14447878084300       -0.93578932750440
H           -2.46678579478407       -2.65022925400017       -0.01630526110957
H            1.35769980061415       -2.96723279558355       -0.17660664996677
