25
 energy: 54.848764257915 xtb: 6.6.1 (8d0f1dd)
C            3.44939095479156        0.93922454543620        0.16009127562317
N            2.50610773208982       -0.13932362482649        0.03226125409142
C            2.82310116296753       -1.42049717231487       -0.10183118536537
N            1.68597047756930       -2.16290157536951       -0.12958197559443
C            0.61598357639515       -1.29833643567889       -0.00047755785872
C            1.15270195640626       -0.02185014690665        0.09312063444345
C            0.26385290931570        1.15699925122828        0.23407676830650
O            0.73603819995919        2.28022816769155        0.30875779474060
N           -1.03608118615832        0.84136699447208        0.29104540465844
C           -3.48815003399024        3.41898495452669       -0.41798864544365
C           -1.61243507930810       -0.31817266845900        0.21758054832323
O           -2.76967945929150       -0.62906600273226        0.26057873367682
N           -0.67911446863271       -1.54317226003739        0.02987836437998
C           -1.22312629874904       -2.86701808554760        0.00416398924199
H            3.97568165168355        0.87445061864083        1.10522145791131
H            4.17665475553948        0.89691996657263       -0.65028350857108
H            2.91467419215591        1.88794680532445        0.14288997049378
H            3.80952876805872       -1.81428187926093       -0.21616999820279
H           -2.70384842297835        4.13953456400673       -0.39519221935444
H           -3.82658341030632        3.02778305013758       -1.35025098955409
H           -3.97411223816122        3.13150548209792        0.48428179567176
H           -0.83952118162837       -3.45161783881509        0.84591036032882
H           -0.96095782936763       -3.35846864878577       -0.93582022512907
H           -2.30836148420718       -2.78830161868152        0.09713337374237
H            1.65083175545557       -3.16722568797496       -0.22786103397356
