25
 energy: -42.153271899274 gnorm: 0.003203844033 xtb: 6.6.1 (8d0f1dd)
C            3.55445439324473        0.86874195383777        0.03346193108892
N            2.57456287665126       -0.18204657625325       -0.00446333927207
C            2.79914142511789       -1.49335289106751       -0.06628337621429
N            1.61904906645369       -2.16085804789512       -0.05940175219954
C            0.61050232463756       -1.23787640600724        0.01214418164060
C            1.21868518773590        0.01258067392696        0.04713648259924
C            0.39754294000232        1.23610214775943        0.09017803946257
O            0.88035177926822        2.35289440920380        0.10243927407307
N           -0.91812822137548        0.96128842946877        0.10378044452488
C           -3.83891657049745        3.23678420676209       -0.10632015630756
C           -1.54116981371568       -0.20631650927638        0.08286630367087
O           -2.73816142232136       -0.35715604681950        0.09253167428416
N           -0.71407946807587       -1.41370257132346        0.03837427364491
C           -1.34892384964227       -2.70803515749360        0.01716536773547
H            3.99585648540934        0.93936798639947        1.02978575202321
H            4.34461457558081        0.67723195326755       -0.69027598050621
H            3.05902660359382        1.81409487636267       -0.19030336486698
H            3.76276910772217       -1.95695542529182       -0.12353293469777
H           -3.08511843857840        3.99927178736398       -0.09830138574785
H           -4.16781919530612        2.81562566290836       -1.03534608653706
H           -4.23897962816460        2.86763057191404        0.81650624431898
H           -1.05455374058426       -3.29899403279640        0.88647433345555
H           -1.10469171666752       -3.24772884371531       -0.89983745972765
H           -2.42579262711651       -2.53557216787819        0.05163961862606
H            1.52020944079647       -3.16478144186105       -0.09924646719780
