25
 energy: 0.000000000000 xtb: 6.6.1 (8d0f1dd)
C            3.23720163006194        1.16630919979326        0.08434469647475
N            2.29877817382611        0.07527477071623        0.03981603040599
C            2.58028210190900       -1.21425402444508        0.03006176031096
N            1.43813958087363       -1.93419271955128        0.00098261760884
C            0.39035688448383       -1.05887472636071       -0.00790371836672
C            0.93510056364412        0.21347819449412        0.01709077491437
C            0.09450143893243        1.40504303904423       -0.00410947031874
O            0.49712751527797        2.54126714362870       -0.00342325688240
N           -1.25076640035757        1.06271879480407       -0.03085478223738
C           -2.21907211982101        2.15522099834493       -0.05001256985998
C           -1.81739487048744       -0.20012725993278       -0.04692818574614
O           -2.99983886758376       -0.37846417018721       -0.07008878229737
N           -0.92618586207120       -1.30210215599479       -0.03682761578324
C           -1.46982264913417       -2.64643102187190       -0.06029820460571
H            3.71247264356769        1.21471455160235        1.06488849150277
H            4.00791497605742        1.03430808813993       -0.67357694370751
H            2.69910007168542        2.09770118228144       -0.09130154882931
H            3.56654120610678       -1.63682992603973        0.04233140067262
H           -1.67107961066214        3.09322851271934       -0.02552706933167
H           -2.82428953597071        2.09428624779827       -0.95318082946668
H           -2.87644029173232        2.07745725625962        0.81450067533302
H           -1.17061996399332       -3.19584890659852        0.83242232437030
H           -1.14560257411436       -3.17511610292205       -0.95688275822323
H           -2.55549792440841       -2.55659984320617       -0.07459039797972
H            1.38130855184625       -2.94313852034425       -0.01389874181052
25
 energy: -2.140004433753 xtb: 6.6.1 (8d0f1dd)
C            3.25731367598337        1.16506358997220        0.08275218502087
N            2.31513404550900        0.08853527249937        0.03863472071908
C            2.60756810435853       -1.23853653558191        0.02629984313617
N            1.43705019782947       -1.94675743102151        0.00176006332836
C            0.40470413461651       -1.06237406595392       -0.00040714194232
C            0.93521207771592        0.21721434540765        0.02351289190897
C            0.09930708157044        1.39107702098627        0.00688411665280
O            0.50274114018202        2.55418127342919        0.01245524983501
N           -1.27118794000452        1.05432360972455       -0.04779251199577
C           -2.24721782651626        2.15925895010054       -0.08373166647948
C           -1.82011155319034       -0.20581828607363       -0.03991171088119
O           -3.01475702824084       -0.39687067247903       -0.05188034781957
N           -0.92570875281992       -1.30598347663698       -0.02393897099959
C           -1.45696886831157       -2.65169394878552       -0.04832092273257
H            3.73643579172537        1.21132369645384        1.06421609262681
H            4.02569484689895        1.02302309008823       -0.67897415344609
H            2.71682309903522        2.09197219495549       -0.09645592631649
H            3.58639259090787       -1.66357486950078        0.03032622197344
H           -1.66898655228926        3.07809844998785        0.03678557308576
H           -2.92558718276880        2.29108104321303       -0.98611553211503
H           -2.93555650594918        2.03867125037778        0.74237107189787
H           -1.15212267734765       -3.20429110218311        0.84263941315015
H           -1.12512009536537       -3.18004824063680       -0.94459131468071
H           -2.54253472562532       -2.56793228003387       -0.06419680171429
H            1.37369759003257       -2.95091427613691       -0.01528654606490
25
 energy: 7.807192455069 xtb: 6.6.1 (8d0f1dd)
C            3.28294609751547        1.15337302166974        0.07885513967579
N            2.32739634344429        0.09630915546269        0.03637325392045
C            2.62833413262506       -1.26035188826076        0.02037382735727
N            1.43446682640889       -1.95402260697560        0.00246111228408
C            0.41839739051540       -1.06581755272139        0.00990546899898
C            0.93099700742258        0.22193534177030        0.03122585379945
C            0.10025462133874        1.37448414069738        0.01048104208864
O            0.49887626296810        2.55154213136234        0.03847509642099
N           -1.30540321299881        1.05507714925221       -0.08959662505050
C           -2.28384057942468        2.17779774790202       -0.12064325448114
C           -1.82114970209948       -0.20972672501616       -0.03415834234809
O           -3.01833128639313       -0.42518556064917       -0.01692090529800
N           -0.92407867270638       -1.30668064198837       -0.00314527905068
C           -1.43633441966806       -2.65772614291998       -0.02895606092483
H            3.76981627969009        1.20156219324766        1.05896728415194
H            4.05093621152191        1.00130936114219       -0.68453332966429
H            2.74995173906298        2.08255929342038       -0.10433966917432
H            3.60117027733243       -1.68674908768894        0.01104310485668
H           -1.67224937421442        3.06770477109877        0.14093693271682
H           -3.01227990404320        2.55030446544712       -1.03496511762877
H           -3.03663120565094        1.96498573721306        0.63572390321396
H           -1.12498103585063       -3.21445462649391        0.85928341177674
H           -1.09463537956006       -3.18492552072202       -0.92481451034386
H           -2.52235350722725       -2.58784225777868       -0.04722400316724
H            1.37093975792736       -2.95643329629890       -0.01777443798276
25
 energy: 17.199767298001 xtb: 6.6.1 (8d0f1dd)
C            3.30590697836874        1.13546673850305        0.07582346231513
N            2.33385762612498        0.09346269872189        0.03399952722107
C            2.63352875212465       -1.27210762918523        0.01421873843258
N            1.43382197047467       -1.95664493741604       -0.00017367699171
C            0.42508088964418       -1.06651082249537        0.01654907169073
C            0.93036859599646        0.22559263419926        0.03640345263405
C            0.10111824805674        1.37443953024421        0.01097888992052
O            0.49601629130392        2.55124445491971        0.06340233371612
N           -1.32734482662981        1.07018420553684       -0.12364538312563
C           -2.31627734795769        2.20142951464145       -0.14171900498142
C           -1.82132411913174       -0.20489797143610       -0.02416651963012
O           -3.01576759955626       -0.44097790085227        0.01854546334183
N           -0.92070758661877       -1.30061723241836        0.01518004922515
C           -1.41845723928743       -2.65813967378883       -0.01327763254004
H            3.79798032428178        1.18146670315735        1.05445465722807
H            4.07353708657350        0.97242316767338       -0.68694129857575
H            2.78895976629822        2.07356169686360       -0.10936536886873
H            3.60542474940009       -1.70129426093108       -0.00990082577640
H           -1.71522340681401        3.06742361771469        0.22455517049761
H           -3.04636460979671        2.70911270293672       -1.06801373004890
H           -3.13103505057068        1.89791064852050        0.53316840131729
H           -1.10049356804529       -3.21669069457355        0.87228523030390
H           -1.06786827654760       -3.18114214815000       -0.90935128139982
H           -2.50530395267169       -2.60539984547037       -0.03238736768529
H            1.37278097291597       -2.96026659474347       -0.02358846207296
25
 energy: 20.759728982144 xtb: 6.6.1 (8d0f1dd)
C            3.31944159373849        1.12196099356968        0.07614495094228
N            2.33663292372902        0.08811193986340        0.03215705696392
C            2.63106301310552       -1.27429974577814        0.01199344847986
N            1.43465519054844       -1.95595622772103       -0.00327766719781
C            0.42655476774863       -1.06530259135513        0.01718239817148
C            0.93250073808690        0.22743870992329        0.03676792025102
C            0.10380670093043        1.38044121449297        0.00782375589255
O            0.49471218893946        2.55174335212992        0.07766787213797
N           -1.33365157451864        1.08228860049790       -0.14143448461435
C           -2.33506687433658        2.21244804502702       -0.14773614000253
C           -1.82099414507007       -0.19797991277770       -0.01475315198552
O           -3.01117366205224       -0.44335423360809        0.04502892568777
N           -0.91821428640623       -1.29317455574810        0.02408797794027
C           -1.40945657490765       -2.65464804543513       -0.00688968166675
H            3.81108271633302        1.16383028712307        1.05512068372100
H            4.08718467793236        0.95085608714882       -0.68458881739537
H            2.81558234797167        2.06734975428921       -0.11029110037159
H            3.60367772182723       -1.70532446407137       -0.02269238781293
H           -1.76251416985088        3.05833232567697        0.25851088197147
H           -3.06470667051307        2.76663255649424       -1.07250586304975
H           -3.16796839934802        1.86806223763383        0.46818938790726
H           -1.08737450748142       -3.21270162466197        0.87749753363000
H           -1.05314119038466       -3.17310978758458       -0.90344708860492
H           -2.49651396591769       -2.61365291735956       -0.02624092309211
H            1.37609610783224       -2.96096339559757       -0.02728159175598
25
 energy: 20.739775070532 xtb: 6.6.1 (8d0f1dd)
C            3.32239818393595        1.11718484607056        0.07348835006278
N            2.33693709343069        0.08471982653872        0.02844456410308
C            2.62654710028086       -1.27080193584971        0.01365748878403
N            1.43557538969527       -1.95404681394573       -0.00309448937238
C            0.42485596010581       -1.06408984890850        0.01372220185636
C            0.93457926160694        0.22780292254611        0.03313099433156
C            0.10773217606780        1.38593083458244        0.00477985473111
O            0.49479786953206        2.55272643084526        0.08465310042462
N           -1.33020591433941        1.08695720580857       -0.15059636822353
C           -2.33851490034626        2.21509225311832       -0.14658526900618
C           -1.82113968956285       -0.19250795488436       -0.01485439974048
O           -3.00815213725988       -0.43831087727445        0.05699458360419
N           -0.91803363683252       -1.28801630491218        0.02474852222327
C           -1.40938274286838       -2.65067908332616       -0.00308810553809
H            3.81116170076869        1.15795839500812        1.05350604107381
H            4.09005314829550        0.94206140741245       -0.68564597940541
H            2.82351823595112        2.06461740018115       -0.11490559109725
H            3.60006950272215       -1.70209801350693       -0.02736028010225
H           -1.78526102490180        3.04528274719482        0.30350872051453
H           -3.04843774214663        2.78183448773355       -1.07845194919095
H           -3.18190899430416        1.83483875574859        0.42219388178282
H           -1.08612187367527       -3.20520140169444        0.88282005893171
H           -1.05158310690770       -3.16903555706911       -0.89854126402370
H           -2.49599244891222       -2.61344987476163       -0.02213022511910
H            1.37872325760049       -2.95974124448352       -0.02336054545728
25
 energy: 19.259489722441 xtb: 6.6.1 (8d0f1dd)
C            3.32091585756100        1.11792091339267        0.07192667068007
N            2.33718993960429        0.08358088223506        0.02592556114553
C            2.62421119799310       -1.26789283723034        0.01722220690738
N            1.43571090105673       -1.95299319728686       -0.00243207685656
C            0.42320201727217       -1.06319558006412        0.01030097465020
C            0.93603489922531        0.22780974467102        0.02917080570718
C            0.11110547639277        1.38834864380255        0.00157750037203
O            0.49614331718857        2.55410776148995        0.08662223933423
N           -1.32419226937335        1.08739430748654       -0.15287332939222
C           -2.33470565674870        2.21471280201921       -0.14260819936742
C           -1.82097965183158       -0.18953773957217       -0.01447752742679
O           -3.00694720391796       -0.43324681219114        0.06067968850400
N           -0.91866708295844       -1.28595831124538        0.02281630716134
C           -1.41240421155241       -2.64843730171680       -0.00270589892273
H            3.80782558027775        1.15937215757135        1.05257786782674
H            4.08887637944926        0.94285206974587       -0.68640802062811
H            2.82099485806741        2.06424889792264       -0.11733693223601
H            3.59782631635893       -1.69976147557622       -0.02812416726113
H           -1.79629135945940        3.03487145054114        0.32382186029200
H           -3.02876171787941        2.77359715487630       -1.07437220549717
H           -3.17920085172042        1.81945582698321        0.39953282522892
H           -1.08968147022691       -3.20140595090840        0.88426258874442
H           -1.05564584913494       -3.16837757508722       -0.89731045743127
H           -2.49871132323317       -2.60977166922400       -0.02111076210037
H            1.37836657552570       -2.95866556046289       -0.01964362328700
25
 energy: 18.310449148155 xtb: 6.6.1 (8d0f1dd)
C            3.31926099420868        1.11990422347119        0.07003981317443
N            2.33756068839860        0.08395972020459        0.02441700167491
C            2.62428514654175       -1.26749577890201        0.02064297639521
N            1.43531856478820       -1.95296987492140       -0.00115049580509
C            0.42281433412629       -1.06272478618868        0.00907295231688
C            0.93641506229644        0.22803454005991        0.02714404605750
C            0.11244810020163        1.38850142995698        0.00035795442663
O            0.49710052086039        2.55520119344820        0.08515229772397
N           -1.32096112957452        1.08691849531950       -0.15434589627242
C           -2.33155322828604        2.21476960318963       -0.14156001598525
C           -1.82050195142836       -0.18837432960691       -0.01566198438993
O           -3.00696163445283       -0.43091667577584        0.05952898985029
N           -0.91910287394555       -1.28572165209159        0.02164227772790
C           -1.41458862513242       -2.64762713581418       -0.00172301029974
H            3.80610900751460        1.16243249124829        1.05066122917146
H            4.08736000835739        0.94565477890055       -0.68840258808361
H            2.81699214362712        2.06485700729948       -0.11944507169606
H            3.59737469856157       -1.69999161388637       -0.02876730856799
H           -1.79811841271671        3.03114453306031        0.34418629414475
H           -3.01090553994911        2.77305287598968       -1.07468959520933
H           -3.18234024080859        1.80497036684036        0.38636501005879
H           -1.09253107423331       -3.19997970637855        0.88592948098656
H           -1.05905684053944       -3.16943268441406       -0.89571750372057
H           -2.50091060354022       -2.60677926027345       -0.01975102708330
H            1.37670755306070       -2.95835915856364       -0.01689193044873
25
 energy: 17.690667889673 xtb: 6.6.1 (8d0f1dd)
C            3.31825778274024        1.12137042738639        0.07004835467113
N            2.33766356004213        0.08458312425794        0.02446987155852
C            2.62500924663301       -1.26802822546906        0.02379217863746
N            1.43487260329309       -1.95314791581110       -0.00045353618448
C            0.42294919963070       -1.06242964902947        0.00905973227358
C            0.93620368506069        0.22825742179113        0.02661933541385
C            0.11174396380024        1.38772437220704       -0.00036941112065
O            0.49673645199854        2.55544291319082        0.08199646898640
N           -1.32024957431967        1.08622938796953       -0.15431135597555
C           -2.33068864866532        2.21452850005842       -0.14145712021047
C           -1.82019616713197       -0.18853139359291       -0.01577573318286
O           -3.00735804326867       -0.43085939213106        0.05739241467101
N           -0.91919099861904       -1.28631588885736        0.02101649322249
C           -1.41522961874510       -2.64780397775340       -0.00201151110472
H            3.80570576147071        1.16422818401281        1.05043141531007
H            4.08657407184877        0.94823450231118       -0.68865405330087
H            2.81440019296881        2.06564508413162       -0.11899396442264
H            3.59749497741090       -1.70102497239777       -0.02995680180722
H           -1.79819912390816        3.02836027989249        0.34508523296507
H           -3.00509387786194        2.77089459791137       -1.06990925383679
H           -3.17865053120308        1.80633135988239        0.38585573237963
H           -1.09360677365265       -3.20054489680919        0.88561694456153
H           -1.06029044080038       -3.17022714724059       -0.89599961900493
H           -2.50169923922688       -2.60558504939159       -0.02002892356387
H            1.37505620844128       -2.95830304434760       -0.01642899478841
25
 energy: 17.328297980351 xtb: 6.6.1 (8d0f1dd)
C            3.31809006482258        1.12187002238267        0.07019972909633
N            2.33766657493926        0.08506542272436        0.02500278409254
C            2.62590758845920       -1.26902529471835        0.02768560678904
N            1.43449156523881       -1.95336367271150        0.00029148142286
C            0.42340916600740       -1.06216164813491        0.00964594777798
C            0.93595456133516        0.22845691595492        0.02680732728512
C            0.11047472807249        1.38703300762920       -0.00070608466192
O            0.49638916123578        2.55540159618837        0.07846975920441
N           -1.32048472823169        1.08623704840739       -0.15455989704611
C           -2.33156602240740        2.21489874067378       -0.14236971898961
C           -1.81967656307399       -0.18864896420721       -0.01634765497324
O           -3.00747093059934       -0.43111388843905        0.05491814911568
N           -0.91900445310085       -1.28677223555652        0.02085708893639
C           -1.41499839162069       -2.64797043262748       -0.00193033609599
H            3.80642895620949        1.16474039157133        1.05021837694309
H            4.08630752903547        0.94927937648974       -0.68898820730347
H            2.81365260401675        2.06602873228323       -0.11846223471027
H            3.59774372352610       -1.70219052496626       -0.03294673576994
H           -1.79890348555155        3.02701916204994        0.34535736474765
H           -3.00115533916087        2.77260083612272       -1.06549497037840
H           -3.17940874446131        1.80703529912347        0.38617079231369
H           -1.09344883973820       -3.20098169275301        0.88559145598816
H           -1.06034124162673       -3.17067755088826       -0.89597842171616
H           -2.50160002986954       -2.60534783700487       -0.01995532109828
H            1.37375721447993       -2.95838420742172       -0.01644238482223
25
 energy: 17.157522962448 xtb: 6.6.1 (8d0f1dd)
C            3.31829966747562        1.12154585814539        0.07044897191103
N            2.33729276280249        0.08525257484965        0.02566542513065
C            2.62613932288626       -1.26937038421623        0.03160073171689
N            1.43434085461923       -1.95333954794792        0.00079953204327
C            0.42357640020878       -1.06203793100331        0.00988474457572
C            0.93570540712477        0.22848676081540        0.02699504148238
C            0.10917946574753        1.38687022823525       -0.00131369324040
O            0.49595615355941        2.55514666598357        0.07663122903633
N           -1.32112959665567        1.08648665686053       -0.15551125296616
C           -2.33316939328292        2.21528232442600       -0.14401816635671
C           -1.81955236364831       -0.18884760997558       -0.01736849175737
O           -3.00749919749849       -0.43150095650428        0.05346314634200
N           -0.91888467632199       -1.28689610901421        0.02070384168449
C           -1.41445240525217       -2.64808704582382       -0.00171338816186
H            3.80709702677518        1.16425939349506        1.05024301278083
H            4.08628930946136        0.94864535600036       -0.68900099729324
H            2.81442427543585        2.06603631892459       -0.11825249921860
H            3.59764889212804       -1.70210233200661       -0.03664515729159
H           -1.79934195437029        3.02634398267209        0.34628163359036
H           -2.99954887539451        2.77504341233032       -1.06282116172042
H           -3.18030859955562        1.80784039815892        0.38687666893080
H           -1.09260330430536       -3.20085680729487        0.88584125142974
H           -1.05972328152756       -3.17082371286772       -0.89574056231839
H           -2.50107607983620       -2.60596294678115       -0.01968591195854
H            1.37355485736083       -2.95838594528942       -0.01633005222390
25
 energy: 17.059419085577 xtb: 6.6.1 (8d0f1dd)
C            3.31858415648002        1.12100472766974        0.07061941904895
N            2.33692432287925        0.08524117364910        0.02605963845859
C            2.62593646181763       -1.26918773779565        0.03485597704441
N            1.43434717368838       -1.95322037239983        0.00088114904150
C            0.42348634183369       -1.06202580209121        0.00954410443492
C            0.93563890115733        0.22841655340303        0.02697611830928
C            0.10865139020014        1.38708764030379       -0.00168145091659
O            0.49592179844338        2.55491578315542        0.07701575715837
N           -1.32141569995963        1.08675214822864       -0.15623196750407
C           -2.33417409319926        2.21561435522755       -0.14511489236476
C           -1.81968287798771       -0.18888998219924       -0.01785899010915
O           -3.00745722540729       -0.43152300947857        0.05365038936232
N           -0.91891270947088       -1.28667911820618        0.02052823592517
C           -1.41413596677711       -2.64802790438106       -0.00164947178327
H            3.80733891289716        1.16359586498894        1.05039189635759
H            4.08640177515927        0.94744868292852       -0.68882239419786
H            2.81551743542193        2.06583462763594       -0.11836735461194
H            3.59734063449587       -1.70127044200855       -0.04007022876277
H           -1.79990875501504        3.02612178418187        0.34599903122593
H           -2.99881135313998        2.77598370632923       -1.06173010096727
H           -3.18148652491890        1.80789260100736        0.38718907231051
H           -1.09191046889623       -3.20046756874842        0.88595472534918
H           -1.05926588731721       -3.17068369803079       -0.89563642963082
H           -2.50070932166850       -2.60655710503466       -0.01946298880992
H            1.37399624721998       -2.95834830616303       -0.01600534822104
25
 energy: 16.964149587697 xtb: 6.6.1 (8d0f1dd)
C            3.31877365381833        1.12044157246803        0.07081573359817
N            2.33641576313090        0.08521656561250        0.02635933663616
C            2.62545594365132       -1.26862130057524        0.04019406658027
N            1.43440382580871       -1.95305240643062        0.00073935071847
C            0.42317779558621       -1.06215200190443        0.00838825458183
C            0.93555587945828        0.22824565137609        0.02652807618581
C            0.10832740012858        1.38740410355335       -0.00221342856464
O            0.49577232659224        2.55453401872744        0.07879954567858
N           -1.32167344664823        1.08673940945231       -0.15752389418517
C           -2.33490499215410        2.21582368178762       -0.14651484197769
C           -1.82013863368247       -0.18909068866939       -0.01820891435864
O           -3.00750188998010       -0.43158035782477        0.05501039880798
N           -0.91908327764591       -1.28632066810496        0.02010184580476
C           -1.41395565945145       -2.64798086406704       -0.00173005574396
H            3.80713510833409        1.16305087823538        1.05070271879416
H            4.08653201355092        0.94591182288007       -0.68835428037332
H            2.81670095054278        2.06560648368596       -0.11872963606845
H            3.59671251213650       -1.69963161719257       -0.04533350331689
H           -1.79984515975072        3.02593385753588        0.34581871452486
H           -2.99842390219849        2.77626727120902       -1.06161244081691
H           -3.18158476646105        1.80829224050072        0.38773710484186
H           -1.09129104668733       -3.19993121849324        0.88599478013832
H           -1.05885977098500       -3.17053858629225       -0.89561339834113
H           -2.50043980401853       -2.60723735676772       -0.01931449133944
H            1.37495384486082       -2.95830188853013       -0.01500714565770
25
 energy: 16.912875023234 xtb: 6.6.1 (8d0f1dd)
C            3.31869364067133        1.12050914899178        0.07089465165173
N            2.33643602129021        0.08520949902512        0.02628745535231
C            2.62542306854815       -1.26854228002740        0.04419010913703
N            1.43438431709230       -1.95309118551219        0.00055104040745
C            0.42310345566614       -1.06224175940206        0.00738048765935
C            0.93561779096147        0.22818090570540        0.02597843082762
C            0.10863519877240        1.38743417239614       -0.00224369245268
O            0.49570301177130        2.55443890090357        0.08003589662111
N           -1.32153006944214        1.08651288565743       -0.15794674318886
C           -2.33451097663789        2.21579678433160       -0.14652962947421
C           -1.82028209929079       -0.18911217940966       -0.01794408878364
O           -3.00749898310606       -0.43145436010247        0.05622689792604
N           -0.91912636252292       -1.28615645804747        0.01970107264655
C           -1.41410026018872       -2.64792579292160       -0.00195501165467
H            3.80684104262527        1.16329524937592        1.05086639208188
H            4.08656889213864        0.94584284669674       -0.68810087018406
H            2.81658496391377        2.06558313293951       -0.11884968800863
H            3.59632169590951       -1.69914760377753       -0.04884242980036
H           -1.79956866941725        3.02601855413672        0.34492506030512
H           -2.99832134719602        2.77528154937451       -1.06207106632457
H           -3.18133434838162        1.80840178274144        0.38802592654238
H           -1.09146607629963       -3.19980932584119        0.88583100654117
H           -1.05898689250890       -3.17054075935985       -0.89576333497366
H           -2.50057507107806       -2.60710195395872       -0.01948546805990
H            1.37520272464581       -2.95835315174378       -0.01412850864725
25
 energy: 16.810658886535 xtb: 6.6.1 (8d0f1dd)
C            3.31827878341180        1.12093509437857        0.07131624697370
N            2.33661582016105        0.08517451553131        0.02630811982149
C            2.62580314897990       -1.26889814219313        0.05870974437119
N            1.43422216910321       -1.95325057779315        0.00053108173755
C            0.42315068321217       -1.06237800979492        0.00474597217050
C            0.93573878558685        0.22806810077135        0.02424909352876
C            0.10907409346898        1.38721151972069       -0.00267883403629
O            0.49488367018591        2.55424929500207        0.08129168034982
N           -1.32145263910439        1.08582621750880       -0.15933262816907
C           -2.33358838733900        2.21550974851643       -0.14658439293822
C           -1.82041684411227       -0.18926255387151       -0.01761070387000
O           -3.00746361336117       -0.43148943970949        0.05833234883440
N           -0.91897305200595       -1.28605837561354        0.01834797267355
C           -1.41430511659111       -2.64794226398728       -0.00252923268631
H            3.80632633004679        1.16421219167834        1.05129840061253
H            4.08648825387815        0.94642095656353       -0.68747861420417
H            2.81568156778684        2.06567383542001       -0.11874227005909
H            3.59506698742287       -1.69848038569759       -0.06136398519173
H           -1.79810821641025        3.02606519821021        0.34430866493419
H           -2.99855578690377        2.77364234948480       -1.06324877249538
H           -3.17950152863746        1.80940330487298        0.38908050822944
H           -1.09197036612791       -3.19959257554525        0.88552579322746
H           -1.05919388810322       -3.17091631095048       -0.89605387079011
H           -2.50081873380766       -2.60660209792993       -0.02007639892911
H            1.37523254719591       -2.95849299240086       -0.01131202794783
25
 energy: 16.703385176407 xtb: 6.6.1 (8d0f1dd)
C            3.31786283503969        1.12136536385765        0.07172781813404
N            2.33678946416118        0.08514838548785        0.02632192275895
C            2.62616767031846       -1.26923718983017        0.07295311228934
N            1.43406155006796       -1.95340883508218        0.00050166093267
C            0.42319014386125       -1.06251746891668        0.00213952050519
C            0.93584998272966        0.22795718655658        0.02253800280061
C            0.10950827256908        1.38698716300930       -0.00311145125929
O            0.49406724314665        2.55405955952572        0.08256555252801
N           -1.32137880984825        1.08513027793109       -0.16072498340997
C           -2.33266989982491        2.21522065969697       -0.14665556493193
C           -1.82056230337069       -0.18942086521622       -0.01727502353342
O           -3.00743845849190       -0.43152904397859        0.06043370901031
N           -0.91883218145271       -1.28596170117844        0.01701898887380
C           -1.41451629954176       -2.64796206673209       -0.00309511685084
H            3.80580193771056        1.16513403470985        1.05172624784880
H            4.08640729525094        0.94699948506106       -0.68686010620517
H            2.81477926572563        2.06576918982611       -0.11864513330600
H            3.59384958344697       -1.69782110982930       -0.07363434632619
H           -1.79663546343194        3.02609566568715        0.34371898640444
H           -2.99877877614038        2.77201642837571       -1.06442399544408
H           -3.17763307517082        1.81041680009613        0.39013034596116
H           -1.09248021327957       -3.19938517284615        0.88522554018661
H           -1.05940254708027       -3.17128701067685       -0.89633989285008
H           -2.50106801301961       -2.60610865350296       -0.02066542282076
H            1.37527546456108       -2.95863247985957       -0.00853647514894
25
 energy: 16.785324570764 xtb: 6.6.1 (8d0f1dd)
C            3.31814792433235        1.12106279027856        0.07154761912324
N            2.33680325781908        0.08504807095541        0.02638343734809
C            2.62618807045511       -1.26929361923182        0.06535560544064
N            1.43414468923563       -1.95331437518363        0.00071785544375
C            0.42330858061174       -1.06232975968095        0.00392051765589
C            0.93592501636236        0.22803877270703        0.02358762173006
C            0.10927652251799        1.38713768062163       -0.00281203701097
O            0.49469616535588        2.55426691849537        0.08092169275953
N           -1.32131455938726        1.08580518287129       -0.15932509303125
C           -2.33320625987625        2.21541537903680       -0.14608996967088
C           -1.82020915537807       -0.18915979879171       -0.01757201513315
O           -3.00729607702646       -0.43142593070966        0.05856990441673
N           -0.91873235211343       -1.28608539650976        0.01776001203352
C           -1.41429445790729       -2.64789947329173       -0.00275614225282
H            3.80638237896616        1.16440139172797        1.05142083751934
H            4.08640663117029        0.94681910124343       -0.68736623586816
H            2.81526866915795        2.06566501129820       -0.11849095142015
H            3.59427427909334       -1.69840195085601       -0.06711918780984
H           -1.79797108827504        3.02625220187400        0.34381730884372
H           -2.99879222851451        2.77305122567476       -1.06344417300570
H           -3.17943093225126        1.80936088242771        0.38930576124023
H           -1.09211306791935       -3.19947525996372        0.88539907136361
H           -1.05928623516834       -3.17109734866982       -0.89617191748418
H           -2.50083634205783       -2.60628909663187       -0.02030033819857
H            1.37487523873349       -2.95852399751947       -0.01022528788542
25
 energy: 16.891313311135 xtb: 6.6.1 (8d0f1dd)
C            3.31834494707549        1.12078947178828        0.07145399029578
N            2.33673625699014        0.08494687623902        0.02667489264812
C            2.62632827760063       -1.26938800670390        0.06024471998864
N            1.43420536248966       -1.95321329312229        0.00125219421687
C            0.42341830442554       -1.06212413101686        0.00564008905501
C            0.93601661882092        0.22808344068048        0.02462879618471
C            0.10894596197525        1.38725163551993       -0.00266725628360
O            0.49530956373597        2.55443203659265        0.07897711767924
N           -1.32126437527042        1.08648911528417       -0.15781945349818
C           -2.33370377900533        2.21552614033283       -0.14559179105469
C           -1.81986223105867       -0.18897153636980       -0.01796914974678
O           -3.00717085162835       -0.43145476928148        0.05636933457272
N           -0.91859141993012       -1.28628516658271        0.01831005217731
C           -1.41405159407146       -2.64789072478432       -0.00244568888203
H            3.80694906098419        1.16375752513184        1.05114009247727
H            4.08630892173207        0.94663647225260       -0.68782428644967
H            2.81566862867478        2.06557632538944       -0.11830329869655
H            3.59459444343447       -1.69880737330732       -0.06322170970474
H           -1.79905323746654        3.02644969208364        0.34454011979643
H           -2.99907061599420        2.77427880065413       -1.06280240736111
H           -3.18070691946104        1.80842252642814        0.38832708960202
H           -1.09170060726538       -3.19955605588290        0.88558165755699
H           -1.05919943686122       -3.17103473948126       -0.89600804703236
H           -2.50058592937803       -2.60648625641614       -0.01991837743270
H            1.37434931738793       -2.95839940325622       -0.01153478396145
