25
 energy: 0.000000000000 xtb: 6.6.1 (8d0f1dd)
C            3.23720163006194        1.16630919979326        0.08434469647475
N            2.29877817382611        0.07527477071623        0.03981603040599
C            2.58028210190900       -1.21425402444508        0.03006176031096
N            1.43813958087363       -1.93419271955128        0.00098261760884
C            0.39035688448383       -1.05887472636071       -0.00790371836672
C            0.93510056364412        0.21347819449412        0.01709077491437
C            0.09450143893243        1.40504303904423       -0.00410947031874
O            0.49712751527797        2.54126714362870       -0.00342325688240
N           -1.25076640035757        1.06271879480407       -0.03085478223738
C           -2.21907211982101        2.15522099834493       -0.05001256985998
C           -1.81739487048744       -0.20012725993278       -0.04692818574614
O           -2.99983886758376       -0.37846417018721       -0.07008878229737
N           -0.92618586207120       -1.30210215599479       -0.03682761578324
C           -1.46982264913417       -2.64643102187190       -0.06029820460571
H            3.71247264356769        1.21471455160235        1.06488849150277
H            4.00791497605742        1.03430808813993       -0.67357694370751
H            2.69910007168542        2.09770118228144       -0.09130154882931
H            3.56654120610678       -1.63682992603973        0.04233140067262
H           -1.67107961066214        3.09322851271934       -0.02552706933167
H           -2.82428953597071        2.09428624779827       -0.95318082946668
H           -2.87644029173232        2.07745725625962        0.81450067533302
H           -1.17061996399332       -3.19584890659852        0.83242232437030
H           -1.14560257411436       -3.17511610292205       -0.95688275822323
H           -2.55549792440841       -2.55659984320617       -0.07459039797972
H            1.38130855184625       -2.94313852034425       -0.01389874181052
25
 energy: -3.625983565501 xtb: 6.6.1 (8d0f1dd)
C            3.24877797317614        1.17671614559874        0.08649771150729
N            2.30541449620333        0.09851820614121        0.03908452903123
C            2.60046916485085       -1.22681077472022        0.03310961182036
N            1.42822321128544       -1.93666241908466        0.00544800103120
C            0.38390379509257       -1.05625639526788       -0.00768605281092
C            0.92375772012675        0.21896949147117        0.01514844300392
C            0.09018850242268        1.38543322601443       -0.00730179380436
O            0.50311495461063        2.54725767579549       -0.00579160964400
N           -1.28586666122991        1.04620276916066       -0.03676014877833
C           -2.20623511196506        2.17304566611864       -0.03939827353726
C           -1.89529664166618       -0.20592253548389       -0.08091908080129
O           -3.09623869058962       -0.40549347661834       -0.11447959092858
N           -0.95837742440333       -1.29889099069049       -0.04294819145147
C           -1.45607872960568       -2.65804874158063       -0.05557800456177
H            3.73362084366399        1.21895285865486        1.06593894415011
H            4.01632498627333        1.04066252532431       -0.67782051939834
H            2.70940657442284        2.10566249514105       -0.08553964315546
H            3.58359772553434       -1.64640172624689        0.04602386910880
H           -1.62940570130838        3.09830019933542       -0.03174893147951
H           -2.82336575898728        2.11897170161819       -0.93315017809991
H           -2.84259321823042        2.11793834774132        0.84198452664509
H           -1.13776692118775       -3.20449574011367        0.83613662799349
H           -1.11818586193194       -3.18995052002892       -0.94826283958865
H           -2.54089112377151       -2.58713029394249       -0.06609129236936
H            1.37571656515039       -2.94153909216540       -0.00886221773498
25
 energy: 2.548366012481 xtb: 6.6.1 (8d0f1dd)
C            3.26065462940871        1.18221762627763        0.08922595251743
N            2.30256197497059        0.12057879739945        0.03805265655391
C            2.60826573122855       -1.23423166022646        0.04034872170129
N            1.40991158382590       -1.93230624728031        0.01311418456306
C            0.36691810327170       -1.05384580755758       -0.00738403628818
C            0.90430229263511        0.22209989295901        0.01212107042194
C            0.07598460374760        1.35262490735912       -0.01383018917296
O            0.49013691143126        2.52967013984917       -0.01268970071037
N           -1.33897604054153        1.02417433226008       -0.04694553196846
C           -2.18579768991723        2.20808568379546       -0.02133443291019
C           -2.00246796758107       -0.21224132825998       -0.13334119285888
O           -3.20388169324951       -0.44892460074115       -0.20237091744284
N           -1.00103288654409       -1.29248565678135       -0.05408043543984
C           -1.42792491677324       -2.67802735272377       -0.04881685161184
H            3.76438013769536        1.21717225507333        1.06307147667973
H            4.02434746138134        1.04709664235692       -0.68337127435564
H            2.73052415488291        2.11731804992992       -0.07236163388285
H            3.59088848379687       -1.64641181303916        0.05516079598508
H           -1.55695412813729        3.10691914891607       -0.04891112710246
H           -2.83654555074100        2.17532360163666       -0.89124566323390
H           -2.78042020274585        2.20544925019727        0.89461600967284
H           -1.07472430854823       -3.21376602993061        0.84179424238975
H           -1.06945669885038       -3.21562608550998       -0.93415824451490
H           -2.51421575546975       -2.65560054532788       -0.05015320956423
H            1.37573643875946       -2.93623459845985        0.00052322671979
25
 energy: 11.843391987177 xtb: 6.6.1 (8d0f1dd)
C            3.26540672270992        1.18021462492581        0.09333504829246
N            2.29119742837489        0.13122203741293        0.03881369303388
C            2.59912962632975       -1.23522552856401        0.05066552271909
N            1.39300121998567       -1.92850741860038        0.01993236294968
C            0.34669875725584       -1.05672372510060       -0.01199552335198
C            0.88535166632007        0.22037906391108        0.00649837045073
C            0.05421298176789        1.33191847746716       -0.02732157448756
O            0.46351642384222        2.51306615315430       -0.02492372673403
N           -1.39050366333306        1.01008225693221       -0.06304567533464
C           -2.16784568344379        2.24669467011848       -0.00269260373718
C           -2.09154338075461       -0.21564741335704       -0.18550432283659
O           -3.28115149086503       -0.48933632734924       -0.29011011419254
N           -1.03492642792586       -1.29090922200085       -0.07052419828550
C           -1.39572565010105       -2.70073835922549       -0.04378454180138
H            3.78660035003047        1.20336362203241        1.06042603409141
H            4.02392194074510        1.04714322517879       -0.68710993143082
H            2.75198909923365        2.12764362649999       -0.05417799128359
H            3.58519733270104       -1.63891789847211        0.07061634861734
H           -1.48379886734344        3.11159735874653       -0.07614996406551
H           -2.86685992741549        2.24536093470254       -0.83707527408711
H           -2.70374111669274        2.30753980592402        0.95604213373505
H           -1.00228796334951       -3.21432943008789        0.84794544676769
H           -1.01590004875587       -3.24033409305745       -0.92173358560723
H           -2.48325036150188       -2.74233185414310       -0.03294176873661
H            1.38352570012200       -2.93419598487605        0.01184973146228
25
 energy: 17.909997291467 xtb: 6.6.1 (8d0f1dd)
C            3.26280217381447        1.17293429393446        0.09872111406031
N            2.27703169251574        0.13154237982199        0.04109386400609
C            2.58185944011562       -1.23156204074405        0.06091398990398
N            1.38213031865010       -1.92724531895415        0.02320924898622
C            0.32997448345610       -1.06240641153604       -0.02108468202530
C            0.87152908288566        0.21572071118344       -0.00107648722413
C            0.03663053116610        1.32630413943220       -0.04437210620862
O            0.44583871919076        2.50176661555640       -0.04229768175124
N           -1.42740758219798        1.00896493412717       -0.08015078430426
C           -2.15725496300302        2.27551616781715        0.01071206981336
C           -2.14574537280948       -0.21145917487843       -0.22068629087579
O           -3.31843594240688       -0.51352661704010       -0.34632657699259
N           -1.05312886081342       -1.29351758633941       -0.08727028315871
C           -1.36873295023630       -2.71722696806278       -0.04227184773723
H            3.79421143438996        1.18091370254706        1.06065880041420
H            4.01532985103309        1.04152999256879       -0.68837518310731
H            2.76506342034690        2.13164934824586       -0.03492820400794
H            3.57260889300397       -1.62778575916111        0.08887902371247
H           -1.44452800748191        3.11318347942548       -0.10651866475641
H           -2.90196464019516        2.30264569223695       -0.78361418264065
H           -2.62964554161827        2.38015053239913        1.00275950755167
H           -0.94420209902019       -3.20549868405204        0.85140880860234
H           -0.97436734640600       -3.25536461095425       -0.91544964863921
H           -2.45265909412620       -2.81340846783313       -0.01865787108976
H            1.39527702768250       -2.93479174756852        0.02175796361580
25
 energy: 19.203079031812 xtb: 6.6.1 (8d0f1dd)
C            3.25596128474376        1.16461402788564        0.10349953119805
N            2.26500037416909        0.12607375583346        0.04383836397043
C            2.56523683321486       -1.22530835923978        0.06861460260092
N            1.37803963442206       -1.92751939257479        0.02352116471202
C            0.32035037952532       -1.06739664853057       -0.02917206433012
C            0.86404584814840        0.21117900259696       -0.00759917440539
C            0.02995694374341        1.32915308188462       -0.05762228232599
O            0.44394576817361        2.49539383900233       -0.05963230956584
N           -1.44368769596062        1.01623746099918       -0.09182713494974
C           -2.15455666479615        2.28830954217098        0.01770102623829
C           -2.16336573496777       -0.20065655051280       -0.23247964186989
O           -3.32117973153087       -0.51976651718179       -0.36997044972208
N           -1.05493889338656       -1.29814457215826       -0.09785071799786
C           -1.35315579721243       -2.72369766183408       -0.04356707648249
H            3.79075367790094        1.15836956912979        1.06238432907337
H            4.00287941261248        1.03486356448560       -0.68859196543882
H            2.76719552844163        2.12925572308666       -0.01919202449254
H            3.55948636343547       -1.61704494465865        0.10379526479219
H           -1.44256602324521        3.11274787271163       -0.13562792207789
H           -2.93063635072857        2.33091056551346       -0.74109387664542
H           -2.57515089379242        2.40910004671922        1.02546711411453
H           -0.91380332071185       -3.19361683050859        0.85058494553186
H           -0.95336392941528       -3.25849194360063       -0.91555829865078
H           -2.42972618527825       -2.84990904066612       -0.01014188046373
H            1.40549384043108       -2.93562698838146        0.02755437333426
25
 energy: 18.606372760186 xtb: 6.6.1 (8d0f1dd)
C            3.24967984416545        1.16026032179603        0.10756695940092
N            2.25853629775037        0.12200304886883        0.04674142991913
C            2.55710750033760       -1.22017118795766        0.07465601809915
N            1.37820553988604       -1.92823219356281        0.02338549031885
C            0.31735593046515       -1.06961097527045       -0.03323922484133
C            0.86076506579224        0.20941678723208       -0.01195557795282
C            0.03024124996886        1.33171253760914       -0.06548450699596
O            0.44614685573948        2.49488742291789       -0.07192591546097
N           -1.44642678216029        1.02100840370167       -0.09947221172784
C           -2.15499036686266        2.28992518426009        0.02103000641778
C           -2.16208734408177       -0.18998736277837       -0.23315231089204
O           -3.31294735422520       -0.51880908556850       -0.37722016744677
N           -1.04873061967152       -1.30275307050103       -0.10287316607245
C           -1.34832829709442       -2.72448745581241       -0.04620608527639
H            3.78458312036071        1.14439429044203        1.06510250060870
H            3.99281607445092        1.03215837896373       -0.68764526998814
H            2.76200568645696        2.12521854586719       -0.00849830613018
H            3.55237899298277       -1.61079892538370        0.11326781896831
H           -1.44777441080480        3.11003559246044       -0.16798331278646
H           -2.95650589392454        2.33208429568867       -0.70839847161185
H           -2.53640774904097        2.42006498256431        1.04056056917627
H           -0.90481320922525       -3.18747867033394        0.84683367264996
H           -0.94871572726157       -3.25692717821072       -0.91928322023179
H           -2.42006936348407       -2.85927076002901       -0.00803061272425
H            1.41018962741661       -2.93561432479142        0.02925779072750
25
 energy: 18.113527703921 xtb: 6.6.1 (8d0f1dd)
C            3.24610480341506        1.15933029852970        0.11059420217542
N            2.25624768013117        0.12043136525803        0.04941676230239
C            2.55557065962735       -1.21776048247934        0.08039810003332
N            1.37931305804911       -1.92903275368898        0.02435894949691
C            0.31712723808790       -1.07027224081655       -0.03517851791999
C            0.85946027207049        0.20940963985410       -0.01467698290660
C            0.03228058976212        1.33201000458785       -0.06933808065136
O            0.44685462422747        2.49674312607193       -0.07892801465997
N           -1.44542082036693        1.02209711031331       -0.10576560869490
C           -2.15443778792978        2.28948930006393        0.02290944239274
C           -2.15883117629751       -0.18096452517433       -0.23622901337462
O           -3.30749374307806       -0.51624919118629       -0.38060246609017
N           -1.04260076828840       -1.30648349386046       -0.10717006397339
C           -1.34798452200971       -2.72500497499543       -0.04849447852886
H            3.78164952881829        1.13834672273023        1.06705391024758
H            3.98693482632427        1.03331942676472       -0.68676217663596
H            2.75633679250114        2.12306365044925       -0.00126656951806
H            3.55049870998404       -1.60916141299352        0.11904670820364
H           -1.45511358687307        3.10913814175317       -0.19511895974849
H           -2.97777206617177        2.32366622688956       -0.68109487498276
H           -2.50455606127719        2.42697403454214        1.05113526187774
H           -0.90292950570499       -3.18713240493251        0.84363097432093
H           -0.95071100687747       -3.25797356877109       -0.92260546597103
H           -2.41891740743963       -2.85929219422403       -0.00828102884408
H            1.41060433725224       -2.93566320251330        0.03000188759689
25
 energy: 17.847598589943 xtb: 6.6.1 (8d0f1dd)
C            3.24453806552886        1.16073827118813        0.11314212195446
N            2.25681165844047        0.12015579569523        0.05247054383196
C            2.55833808763934       -1.21724340941930        0.08683619493512
N            1.38145887626748       -1.92984106904527        0.02634191677224
C            0.31880541538879       -1.07066198906994       -0.03597471900007
C            0.85989294629112        0.21000446872678       -0.01607525476101
C            0.03481062044934        1.33120100219804       -0.07075384285638
O            0.44558362693915        2.49933323302389       -0.08208383446820
N           -1.44319971083878        1.02100677793604       -0.11094583373305
C           -2.15341249933667        2.28813550340123        0.02355084124966
C           -2.15637113449522       -0.17242785445640       -0.24095290841881
O           -3.30496280505920       -0.51252285705181       -0.38156995771902
N           -1.03658296013821       -1.31038123168449       -0.11184355609907
C           -1.35009399900985       -2.72609283517529       -0.05124917476978
H            3.78170636585391        1.13813832363216        1.06835533835698
H            3.98387476939689        1.03779097565254       -0.68599155191838
H            2.75104046866771        2.12274038640700        0.00419200520133
H            3.55230481387091       -1.61045608317252        0.12219569431839
H           -1.46498873781796        3.10886245770982       -0.22177652073229
H           -2.99698456527551        2.30850335552300       -0.65453458791950
H           -2.47278411984823        2.43320243263107        1.05918144748472
H           -0.90664045688601       -3.19108244392627        0.84043615973858
H           -0.95746787312356       -3.26218237009137       -0.92608240446419
H           -2.42235618720258       -2.85182048477626       -0.01032799785862
H            1.40889400223387       -2.93607175368392        0.03049377702226
25
 energy: 18.061679099509 xtb: 6.6.1 (8d0f1dd)
C            3.24517614773083        1.16295862994893        0.11421895096388
N            2.25901488667618        0.12068128248477        0.05459061402580
C            2.56238786225099       -1.21815266970017        0.09082194914591
N            1.38357817920465       -1.93009714910630        0.02805193808588
C            0.32100787676053       -1.07120642076176       -0.03577407406757
C            0.86158124652744        0.21015318212041       -0.01555874481351
C            0.03611138795037        1.33013243858718       -0.06991514531876
O            0.44363948586493        2.50016799502531       -0.08027820013280
N           -1.44208907985677        1.01912138648176       -0.11241159348753
C           -2.15273713397969        2.28719833230637        0.02272863555217
C           -2.15752756490490       -0.16887958012116       -0.24383774567744
O           -3.30687886340123       -0.51038149677255       -0.38065097558675
N           -1.03381721607056       -1.31274565485568       -0.11466099230103
C           -1.35245252253057       -2.72728506948962       -0.05330198014963
H            3.78378483657198        1.14239650122120        1.06875880661595
H            3.98438307854715        1.04210436867434       -0.68548907423111
H            2.74917204976138        2.12396453370895        0.00549129910986
H            3.55581013195002       -1.61246711602412        0.12119530176059
H           -1.47104802935947        3.10856157519792       -0.23658042382645
H           -3.00639281235181        2.29736234837006       -0.64095774476923
H           -2.45525072570536        2.43808029264573        1.06193502258461
H           -0.91231432414004       -3.19592910939987        0.83872346419831
H           -0.96352808281209       -3.26667314309890       -0.92800397946594
H           -2.42692576334260       -2.84349466662751       -0.01286872998911
H            1.40752961659471       -2.93654218864318        0.03080731792121
25
 energy: 18.417454309192 xtb: 6.6.1 (8d0f1dd)
C            3.24616762880528        1.16449730967467        0.11444273680901
N            2.26079226733045        0.12112823276043        0.05583854401303
C            2.56508034392009       -1.21897284111524        0.09271812299001
N            1.38520249094325       -1.93004479678885        0.02886679645028
C            0.32266945819881       -1.07190528744009       -0.03542424883773
C            0.86313630867146        0.20977590296946       -0.01431980195698
C            0.03645977059425        1.32943814065697       -0.06827189208313
O            0.44248058424112        2.49961181314424       -0.07667984062095
N           -1.44202136397060        1.01781898660377       -0.11166279485227
C           -2.15251199731166        2.28688787537373        0.02152606580482
C           -2.16011920111787       -0.16854474070830       -0.24418186701566
O           -3.30981483394514       -0.50989045497838       -0.37919206636995
N           -1.03288357835165       -1.31389252835285       -0.11566467188196
C           -1.35386664540491       -2.72806583963111       -0.05445989819837
H            3.78523865210027        1.14672270793586        1.06896992959992
H            3.98593077980716        1.04413872542152       -0.68495920797435
H            2.74927981472599        2.12515343650839        0.00442063429910
H            3.55857784928327       -1.61331156572494        0.11803683287097
H           -1.47340962171609        3.10809572085025       -0.24332643172478
H           -3.00961858778538        2.29221116961868       -0.63651482535642
H           -2.44847299827432        2.44176442450338        1.06158106426502
H           -0.91691969718198       -3.19925459756054        0.83819095864093
H           -0.96670992374497       -3.26938957430908       -0.92867140466547
H           -2.42992302606819       -2.83811546125972       -0.01513511339705
H            1.40747019418747       -2.93682815598015        0.03090627533933
25
 energy: 18.674818074835 xtb: 6.6.1 (8d0f1dd)
C            3.24660825369345        1.16503424571559        0.11446947215270
N            2.26141874875615        0.12130762904222        0.05651398344120
C            2.56598092911744       -1.21916652746258        0.09367174214996
N            1.38614191789156       -1.92999055491963        0.02885754832885
C            0.32345385568519       -1.07246864531959       -0.03536142019198
C            0.86382567280636        0.20931567198656       -0.01340034448905
C            0.03635731036509        1.32914507488471       -0.06693935950531
O            0.44220883157396        2.49881698979077       -0.07379418734106
N           -1.44242717701869        1.01734258162213       -0.11065379657075
C           -2.15252215285246        2.28699981146383        0.02065426878042
C           -2.16219742539964       -0.16913128453485       -0.24331713038907
O           -3.31171787855533       -0.51031482071986       -0.37804799795831
N           -1.03254054214355       -1.31431552832327       -0.11566565157584
C           -1.35429549207739       -2.72838619398725       -0.05489148138048
H            3.78525853771029        1.14908184957940        1.06938334816090
H            3.98704703962722        1.04398597192640       -0.68425586959968
H            2.74982417398374        2.12564724309521        0.00288431140563
H            3.55987668851038       -1.61292219524428        0.11478462197239
H           -1.47360379367301        3.10760575712007       -0.24648643907173
H           -3.01067549336420        2.29106806354158       -0.63596028735612
H           -2.44647514607751        2.44452544582558        1.06094091364101
H           -0.91932574830671       -3.20069641820213        0.83828510248544
H           -0.96726144501378       -3.27026271427829       -0.92867569395249
H           -2.43097755810449       -2.83624678544068       -0.01675091698144
H            1.40823256080204       -2.93694606498960        0.03078915999211
25
 energy: 18.866854861629 xtb: 6.6.1 (8d0f1dd)
C            3.24672736722269        1.16510499743277        0.11433727923387
N            2.26145658238380        0.12137294230635        0.05713330239524
C            2.56614528413892       -1.21896463071782        0.09498277744384
N            1.38698587572996       -1.93004699324270        0.02824740217246
C            0.32399008165967       -1.07301954881863       -0.03546922562450
C            0.86407761537217        0.20882026439739       -0.01246168370055
C            0.03609899690193        1.32901538354827       -0.06501924951821
O            0.44237984314949        2.49804521169823       -0.07031704663789
N           -1.44288550847249        1.01730811942881       -0.10922457768682
C           -2.15258481014528        2.28732774774018        0.01978846498012
C           -2.16384033613389       -0.16989772637025       -0.24158292684219
O           -3.31293702012949       -0.51111433347302       -0.37638276552328
N           -1.03205323679578       -1.31451127898401       -0.11502736678328
C           -1.35447267375356       -2.72847128076571       -0.05491452249063
H            3.78415231162050        1.15101267941400        1.07005603017592
H            3.98817824169255        1.04220585987075       -0.68318346734398
H            2.75049833675717        2.12572319741107        0.00035869929168
H            3.56070826576479       -1.61167951916101        0.10972518800594
H           -1.47362189937722        3.10714562590950       -0.24814298398260
H           -3.00998508581224        2.29138283284218       -0.63738389794832
H           -2.44684129337234        2.44674751796994        1.05897473035606
H           -0.92146330837184       -3.20154860491459        0.83891697159842
H           -0.96658105263380       -3.27034188747051       -0.92819219156910
H           -2.43142381821766       -2.83553609819360       -0.01857059214344
H            1.40950590875804       -2.93705187568550        0.03038554828859
25
 energy: 18.930155481981 xtb: 6.6.1 (8d0f1dd)
C            3.24645267290570        1.16483732685934        0.11458598083960
N            2.26094856253908        0.12138511501812        0.05758492887737
C            2.56574107022424       -1.21860333764581        0.09666611747883
N            1.38707878334631       -1.93020253269231        0.02776849011124
C            0.32383379038406       -1.07320081366978       -0.03578211035587
C            0.86364485257848        0.20869549891058       -0.01246942017435
C            0.03579583089279        1.32886293014354       -0.06472500464003
O            0.44240306303150        2.49790178769321       -0.06956240181841
N           -1.44338153895684        1.01744341977839       -0.10933427258748
C           -2.15259488374674        2.28772920544153        0.01965010819192
C           -2.16442523726662       -0.16976166516426       -0.24122277875619
O           -3.31316946159160       -0.51175969651048       -0.37615574073611
N           -1.03185484009570       -1.31460688108589       -0.11482349646662
C           -1.35414785542664       -2.72858447578984       -0.05488032913129
H            3.78302490649777        1.15119515349128        1.07078455365874
H            3.98841046040291        1.04070928143015       -0.68226311328131
H            2.75065083977438        2.12548887828391       -0.00054859494302
H            3.56064325521702       -1.61074846351458        0.10692029794126
H           -1.47273986167854        3.10684763635007       -0.25019351044614
H           -3.01119917752233        2.29184795594023       -0.63715466771858
H           -2.44543793259451        2.44877536961944        1.06002513717026
H           -0.92150811545364       -3.20150481903833        0.83924201370054
H           -0.96525854486898       -3.27016990829268       -0.92793002309857
H           -2.43089129318772       -2.83643130335265       -0.01938240377911
H            1.41019532253172       -2.93711706003110        0.03023413611064
25
 energy: 18.867199217455 xtb: 6.6.1 (8d0f1dd)
C            3.24614199784193        1.16447514994176        0.11460455017245
N            2.26037055863738        0.12134237942855        0.05805902086693
C            2.56527644044087       -1.21824067211427        0.09959507453076
N            1.38700822002824       -1.93046125427526        0.02720176656780
C            0.32361811485056       -1.07321060898432       -0.03606099896937
C            0.86311415974737        0.20873404501770       -0.01248434600544
C            0.03555313001413        1.32878759164723       -0.06396800909344
O            0.44249191100161        2.49811256290502       -0.06866212479649
N           -1.44343557521165        1.01781199947788       -0.10918164208821
C           -2.15257527500811        2.28806811175057        0.01960854227345
C           -2.16394517650046       -0.16925156338705       -0.24080710646464
O           -3.31254408019437       -0.51196697804887       -0.37550847991022
N           -1.03155100409637       -1.31460341194957       -0.11434954549091
C           -1.35398242511075       -2.72854999807321       -0.05458139910432
H            3.78165634135210        1.15161206581597        1.07138650979654
H            3.98873614682694        1.03871130497169       -0.68138358336911
H            2.75072714760667        2.12508887095206       -0.00214122862302
H            3.56046091759856       -1.60999402978353        0.10205571053726
H           -1.47276009213021        3.10688801614395       -0.24957081377063
H           -3.01000556387614        2.29249736665866       -0.63841516472401
H           -2.44659243858722        2.44866447408994        1.05900261043739
H           -0.92172812965976       -3.20123468716038        0.83989625972470
H           -0.96385740398382       -3.26982035566210       -0.92734356952203
H           -2.43047818115032       -2.83720866610340       -0.02010115903665
H            1.41051492749893       -2.93722311108694        0.03018302220852
