72
 energy: -99.292300855424 gnorm: 0.001975543399 xtb: 6.6.1 (8d0f1dd)
N           -2.03980017185003        2.94430638738406        2.31138556082415
C           -1.92369258581720        2.21986291979435        1.30136608767323
C           -3.01513264659618        1.97182375685949        0.29684883592736
C           -3.47567338882613        0.52505430888817        0.38790271115997
C           -4.32139574767510        0.00493201178037       -0.59410696494519
C           -4.77969427084196       -1.30052726288661       -0.53776070640932
O           -5.60101492413248       -1.87750657840159       -1.43927316712278
C           -6.13980412248035       -1.09677970935416       -2.48006204261011
C           -4.37645625134958       -2.13800798938750        0.53741740143115
O           -4.86222171165928       -3.39512231431345        0.50623296188298
C           -4.57859260158898       -4.26632567518900        1.57600471180282
C           -3.54180225184777       -1.61404218142262        1.51151951689055
C           -3.09934010285635       -0.29887710564199        1.43730024667962
C           -2.37795028213383        2.24056844157380       -1.09129867484849
C           -1.40998837358649        1.14426600352829       -1.56962816748379
C           -0.09853606801656        1.14989280318797       -0.88229937884046
N            0.54600187478915        0.07440164298652       -0.43801487203794
C            1.96380406218129        0.12759890351423       -0.17773332919677
C            2.76480275506951       -0.44249753497325       -1.37303979673447
C            4.23149732367547       -0.25260979605293       -1.16531091303065
C            4.84539606434384        0.97382651386523       -1.55379406638876
C            6.11684122618684        1.20892428865618       -1.22561262551043
C            7.00201816976314        0.30309235764545       -0.48143220171669
O            7.26788504661635        0.78948044463964        0.83012395823077
C            8.23323378814844        1.81012085237991        0.87237582766268
C            6.35051968317096       -1.06080638450179       -0.31056360121520
O            7.22232635901615       -1.97336967898243        0.11149597821992
C            6.79384963261556       -3.29608291522946        0.36417899397162
C            5.01600982787690       -1.24697951941575       -0.57205059447078
C           -0.08251183346097       -1.22304296106491       -0.37154846531161
C           -4.25832754481120        2.88970750924088        0.49466977533989
C           -4.96911926164125        2.59493247255226        1.81326823990406
C           -3.92649402631325        4.37675429412961        0.40914925266991
H           -4.63650701014813        0.63608329849329       -1.40825417342743
H           -6.70839598079260       -0.24697457808192       -2.09071130566894
H           -6.81020555249163       -1.75906290266450       -3.02422773785881
H           -5.36013192773842       -0.73674671873252       -3.15938808519902
H           -4.94419967694778       -3.86628211864454        2.52624487329840
H           -5.10536519556027       -5.19058517170793        1.34701749757666
H           -3.50595151269652       -4.47098092755988        1.65388705557783
H           -3.23570025673044       -2.21962449306539        2.34899442753558
H           -2.47492582628232        0.08235786843954        2.23046437743523
H           -3.17347000679041        2.33505277103118       -1.82949414612471
H           -1.84745426204261        3.19284269519890       -1.05613380827053
H           -1.89507627303022        0.17194300493299       -1.50520896413114
H           -1.21025604611492        1.34667963248587       -2.63054921842871
H           -0.98122864921298        1.71512600819265        1.00909537067690
H            0.46192629641375        2.07346127516206       -0.89120805403399
H            2.19307379055496       -0.44725137973687        0.72294003059929
H            2.26534501205452        1.16346522553993       -0.01069491674194
H            2.44629599687887        0.08254419437076       -2.27661827128827
H            2.53555621436331       -1.50332121365262       -1.48641528566541
H            4.25821428474959        1.70327736065016       -2.09234930652157
H            7.96763345050600        0.16487088643473       -1.00333106856975
H            7.90464642242263        2.68867634441026        0.30558002902182
H            9.19240869003944        1.46413685734088        0.46944896864159
H            8.35073598141488        2.07211082408190        1.92192093765311
H            7.68754550228971       -3.84481601411146        0.65440502403416
H            6.06789493390153       -3.32380914089657        1.18120939768883
H            6.35994621910363       -3.74895358811080       -0.53164887645649
H            4.55447563743038       -2.19868398817830       -0.35075041541517
H           -0.17645592613562       -1.67541043184614       -1.36188734289243
H           -1.07623085563189       -1.13991634939709        0.07263311462776
H            0.52050964557475       -1.87821733773204        0.25339600546972
H           -4.95077286194412        2.65017850013801       -0.32063368536712
H           -4.32269741737232        2.84469045532942        2.64836155606900
H           -5.24901244824568        1.54666933063252        1.88386946628915
H           -5.87238911649685        3.19546200649517        1.88167555178579
H           -3.21432113902111        4.64989095932304        1.18167746355850
H           -3.52406012948359        4.64854256202179       -0.56311555606820
H           -4.83425693986154        4.95345281962930        0.56592464635270
H           -1.22726511590215        3.06629269049521        2.90742877444830
