25
 energy: 0.000000000000 xtb: 6.6.1 (8d0f1dd)
C            3.23720163006194        1.16630919979326        0.08434469647475
N            2.29877817382611        0.07527477071623        0.03981603040599
C            2.58028210190900       -1.21425402444508        0.03006176031096
N            1.43813958087363       -1.93419271955128        0.00098261760884
C            0.39035688448383       -1.05887472636071       -0.00790371836672
C            0.93510056364412        0.21347819449412        0.01709077491437
C            0.09450143893243        1.40504303904423       -0.00410947031874
O            0.49712751527797        2.54126714362870       -0.00342325688240
N           -1.25076640035757        1.06271879480407       -0.03085478223738
C           -2.21907211982101        2.15522099834493       -0.05001256985998
C           -1.81739487048744       -0.20012725993278       -0.04692818574614
O           -2.99983886758376       -0.37846417018721       -0.07008878229737
N           -0.92618586207120       -1.30210215599479       -0.03682761578324
C           -1.46982264913417       -2.64643102187190       -0.06029820460571
H            3.71247264356769        1.21471455160235        1.06488849150277
H            4.00791497605742        1.03430808813993       -0.67357694370751
H            2.69910007168542        2.09770118228144       -0.09130154882931
H            3.56654120610678       -1.63682992603973        0.04233140067262
H           -1.67107961066214        3.09322851271934       -0.02552706933167
H           -2.82428953597071        2.09428624779827       -0.95318082946668
H           -2.87644029173232        2.07745725625962        0.81450067533302
H           -1.17061996399332       -3.19584890659852        0.83242232437030
H           -1.14560257411436       -3.17511610292205       -0.95688275822323
H           -2.55549792440841       -2.55659984320617       -0.07459039797972
H            1.38130855184625       -2.94313852034425       -0.01389874181052
25
 energy: -3.089760350444 xtb: 6.6.1 (8d0f1dd)
C            3.23247355339742        1.17560645218002        0.07580814494175
N            2.30198746518345        0.08963601268722        0.03280814125934
C            2.59845723499342       -1.23656410957620        0.03095143630632
N            1.42956991622511       -1.94888644141136        0.00543415095061
C            0.39483533604493       -1.06782361503230       -0.00715722519576
C            0.92471655318332        0.21215752265925        0.01237631190533
C            0.09860025532449        1.38661981597759       -0.00574643507181
O            0.49648524926849        2.55121288014321       -0.00944739132986
N           -1.26319192995806        1.05251082909732       -0.03082861308292
C           -2.19316115488898        2.18715800898014       -0.03560213380639
C           -1.82556528909814       -0.20817130868068       -0.05203710291069
O           -3.02129129243131       -0.39818486800160       -0.07082108761830
N           -0.93524029422018       -1.31364984765777       -0.03608706316458
C           -1.46111648174297       -2.66363608546114       -0.05408105561546
H            3.70740259321698        1.23003049704494        1.05874040950921
H            4.00244468389861        1.03841048272067       -0.68456584553609
H            2.68195694509452        2.09659575164492       -0.10762231220025
H            3.57856862828917       -1.65736593158140        0.04470704818565
H           -1.69316193004317        3.18205939130910        0.03996883534797
H           -2.75004654222547        2.19256924891398       -0.94755523115196
H           -2.93448631182714        2.04064715308985        0.74987761230824
H           -1.15669492435518       -3.21054809117148        0.84108747489015
H           -1.12263122028776       -3.19892771669034       -0.94417044167524
H           -2.54724442742060       -2.58928804360550       -0.07434703933850
H            1.36854805231529       -2.95313938540648       -0.00465669175947
25
 energy: 2.308581908146 xtb: 6.6.1 (8d0f1dd)
C            3.22067491627195        1.18164459745789        0.05797884229786
N            2.29987294160637        0.09807443410856        0.01886415165043
C            2.61220450654419       -1.26133378217320        0.03273974087667
N            1.41697514729311       -1.96294099058798        0.01332990079671
C            0.39735617367755       -1.08096130727212       -0.00448514939712
C            0.90955591194303        0.20616857583022        0.00417709258864
C            0.10285623153684        1.35804434715245       -0.01056150969530
O            0.48662892525172        2.54304808686982       -0.02469036580386
N           -1.28271874686858        1.04653625930703       -0.02581349338583
C           -2.16382262943670        2.23322316549890       -0.01241810092669
C           -1.83447357720855       -0.21447229211343       -0.05069242751551
O           -3.03626327952252       -0.42542108245343       -0.06867584842852
N           -0.94704982189623       -1.32529690638909       -0.03219417653338
C           -1.44447591563494       -2.68702934468972       -0.04301162003804
H            3.69562191755509        1.25393542070282        1.04230851403819
H            3.99309724196833        1.04441316847163       -0.70211272682208
H            2.65623967220534        2.09189118568100       -0.13687747847088
H            3.58676714118709       -1.67715850818109        0.04825210097258
H           -1.71591975493225        3.28799649093406        0.18456733196452
H           -2.61204615125302        2.37577008402837       -0.97734295103156
H           -3.03807874332965        1.97328379980210        0.64081562923879
H           -1.13335576838926       -3.22823822160885        0.85689230673233
H           -1.08279463786318       -3.23262654743166       -0.92180707609936
H           -2.53191171631110       -2.64482172131205       -0.07379489861843
H            1.35727468354155       -2.96470030946030        0.01158610775710
25
 energy: 11.049020905160 xtb: 6.6.1 (8d0f1dd)
C            3.20468856010026        1.18391679821811        0.03893720089088
N            2.29332303366762        0.09613823865032        0.00491673316375
C            2.61548291773162       -1.27985373488178        0.03343378559360
N            1.40866398797194       -1.97496543507344        0.02006486509131
C            0.39597382917236       -1.09602981296561       -0.00106631044234
C            0.89648572912733        0.19598550009815       -0.00353732889206
C            0.09943964982758        1.33770213500723       -0.01709095250134
O            0.46994382705932        2.53087030340111       -0.04248306617685
N           -1.30488257435240        1.04646748443094       -0.01110030881263
C           -2.14829878914397        2.27187443217115        0.01157183342532
C           -1.84508002014280       -0.22045686781284       -0.03834871143033
O           -3.04582761369711       -0.45396954837970       -0.06013910057207
N           -0.95607217645593       -1.33538129005015       -0.02614509693043
C           -1.42591303966338       -2.70939724933696       -0.03342413826740
H            3.67781911538700        1.27601174131235        1.02392622975982
H            3.98140319217849        1.05017711240377       -0.71819814550061
H            2.63005374258497        2.08657030199234       -0.16692661706433
H            3.58977240824494       -1.69005865558194        0.04986054699486
H           -1.73581090086248        3.35844091121305        0.33622509774585
H           -2.45158799346572        2.56711941191463       -1.00824955368690
H           -3.13014618813813        1.92990048908864        0.51454533936970
H           -1.10945751374909       -3.24244780875547        0.87186499696770
H           -1.03929812391405       -3.25947664092864       -0.90183145075110
H           -2.51415915329469       -2.70284560082818       -0.07653826853057
H            1.35569876176258       -2.97726361313519        0.02676631670343
25
 energy: 16.255290758679 xtb: 6.6.1 (8d0f1dd)
C            3.18792545559289        1.18254862440526        0.02718055038521
N            2.28467244561051        0.08633791828684       -0.00437396233741
C            2.60987679952644       -1.28992047000005        0.03351218374681
N            1.40479746507525       -1.98316208618995        0.02353643307356
C            0.39124620459006       -1.10924776685740        0.00137866811070
C            0.88754440289130        0.18445963851579       -0.00946395853681
C            0.09143505143413        1.32755554261229       -0.02599012083287
O            0.45209027928452        2.51720180977442       -0.06073640888000
N           -1.32392410187832        1.05205017345443        0.00975917100860
C           -2.14355704759425        2.30028954687469        0.02712332393564
C           -1.85539400461842       -0.22419229330241       -0.01762358691657
O           -3.04952396153366       -0.47728423464241       -0.04634655686953
N           -0.96181613270038       -1.34206315294817       -0.02087571588312
C           -1.40951294468517       -2.72681641931622       -0.03149131703231
H            3.65621935379476        1.29084517702414        1.01296190676032
H            3.97030646614237        1.05468663673269       -0.72477352140428
H            2.60704851044766        2.08057437754731       -0.18725372511308
H            3.58754021504713       -1.69526828443647        0.05045077484686
H           -1.76496309348880        3.39968547059255        0.42259502453098
H           -2.32138979629242        2.68823531622271       -0.98829762347433
H           -3.16153970458875        1.94051506985442        0.40208208482954
H           -1.09145093145641       -3.25352968483646        0.87785999882402
H           -0.99953467894361       -3.27387680110309       -0.89245126813798
H           -2.49714003991883       -2.75276590637671       -0.08798572343500
H            1.36125845619825       -2.98782959971636        0.03625726494834
25
 energy: 17.414437600554 xtb: 6.6.1 (8d0f1dd)
C            3.17409512284181        1.17818510197696        0.01837147463225
N            2.27630983328601        0.07146816591494       -0.01160351092086
C            2.59622095547340       -1.28723330160510        0.02988516253862
N            1.40665019021349       -1.98517134350378        0.02451211943692
C            0.38332724299893       -1.11766515326220        0.00323760347794
C            0.88432460705267        0.17467862540153       -0.01155370226698
C            0.08027213912384        1.32898638058080       -0.02791821463398
O            0.43489695667787        2.50642536696330       -0.07693298666265
N           -1.33577153642778        1.06004089952185        0.04002592700229
C           -2.15387435376223        2.31051857748948        0.03604206026522
C           -1.86543411622130       -0.22580045839971        0.00304391476108
O           -3.04918831167043       -0.49224969280928       -0.02800076842630
N           -0.96363374793229       -1.34427724526244       -0.01576350197903
C           -1.40055420360954       -2.73506053016149       -0.03100729286570
H            3.63592397244544        1.29492789982717        1.00448120166440
H            3.96087141710200        1.05462820401750       -0.72826612048466
H            2.59202987664202        2.07446222187150       -0.20120366106451
H            3.57989693751553       -1.68930830116482        0.04450831176194
H           -1.81107232185075        3.40286761075432        0.48727248947484
H           -2.17924544119222        2.74616543460603       -0.94088581580837
H           -3.16447399323637        1.96581367750690        0.27405773593838
H           -1.08516260542878       -3.25658366101052        0.88154067886896
H           -0.97429440901686       -3.27206355081860       -0.88814184289830
H           -2.48423191440413       -2.78182754946176       -0.09896430341438
H            1.37433237131590       -2.99289877680074        0.04029693775013
25
 energy: 20.284107430334 xtb: 6.6.1 (8d0f1dd)
C            3.16667307742218        1.17638885128278        0.00295354080226
N            2.27141545278971        0.06496260999104       -0.02339441774739
C            2.58616701930947       -1.27711879659853        0.01878022817203
N            1.41017233607513       -1.98364203789830        0.02320570302071
C            0.37671971705380       -1.12045795791560        0.00855373351786
C            0.88241321622782        0.17123030724269       -0.00751927789652
C            0.07061041669880        1.33047692302418       -0.00952190309345
O            0.42126858141528        2.50457538092066       -0.08818151484578
N           -1.33969028557340        1.05696607827878        0.09033158321606
C           -2.16270988299911        2.30564793232494        0.04851343692766
C           -1.87469052712166       -0.23035709870574        0.02851708895873
O           -3.05346940896761       -0.50210245589361       -0.00140956416830
N           -0.96444452597028       -1.34636517159633       -0.00407850039622
C           -1.40067727911600       -2.73725052859539       -0.02318536810244
H            3.62525831497056        1.29252806067596        0.98883704631002
H            3.95299161467378        1.05009554244331       -0.74255391501167
H            2.58480656693856        2.07101847823935       -0.21874017767547
H            3.57313438378774       -1.67697924305328        0.02540729699054
H           -1.86386915598783        3.38468800079970        0.60196000181403
H           -1.95868897719706        2.81464772203011       -0.93740509056258
H           -3.24270836803924        1.94087196916202        0.09331550213297
H           -1.08701213923983       -3.25595786853103        0.89058236967739
H           -0.96764025747806       -3.26356738479605       -0.88035403867443
H           -2.48023962172735       -2.78929039876398       -0.09606657322184
H            1.38642439999085       -2.99198031189591        0.03848670600308
25
 energy: 16.740108069356 xtb: 6.6.1 (8d0f1dd)
C            3.16899373794351        1.17717862479209        0.00479351295027
N            2.27079195748121        0.06779704873360       -0.02383486009699
C            2.58224154112834       -1.26492596749609        0.01557762147777
N            1.41177228998984       -1.97805305514415        0.02150908052983
C            0.37393153896052       -1.11424406845310        0.01174851866363
C            0.88313213742468        0.17612454811941       -0.00218483463397
C            0.06765546302023        1.33313896402545       -0.00015329269703
O            0.42249487142653        2.50772183946587       -0.09220305144519
N           -1.33219854271246        1.04978895092624        0.10685244480974
C           -2.16230835720209        2.29323116802276        0.03709994003436
C           -1.87588808347005       -0.23159147982197        0.03805351397204
O           -3.05581457550826       -0.49441810178186        0.00579130930785
N           -0.96374166909824       -1.34497451270432        0.00062568981031
C           -1.40796430574155       -2.73233549344525       -0.02509515406539
H            3.62675945502937        1.28589366511596        0.99160331252997
H            3.95444542996654        1.04715170319790       -0.74075819026245
H            2.58950935691940        2.07292297497136       -0.21498157250250
H            3.56856476663984       -1.66740982852431        0.01772167383952
H           -1.89180331302298        3.35381229061386        0.58689970328938
H           -1.93067896824598        2.77711450593057       -0.89930330976413
H           -3.21188511314990        1.94475000165073        0.05270577594670
H           -1.09621173109428       -3.25501081268109        0.88615668758891
H           -0.97795988656173       -3.25488576001232       -0.88533087844177
H           -2.48812015161854       -2.77436106391312       -0.09743719617096
H            1.38649681943233       -2.98538753941648        0.03117745147737
25
 energy: 15.859496990996 xtb: 6.6.1 (8d0f1dd)
C            3.16937141017255        1.18094733426498        0.00223133537206
N            2.26866407396976        0.07438630316268       -0.02820096843018
C            2.58182958723147       -1.25733245280298        0.01062599158933
N            1.41160354180745       -1.97527316109454        0.01992175316634
C            0.37250749392579       -1.11032411447918        0.01665880950916
C            0.87986525981077        0.18069347487596        0.00264218183098
C            0.06009395276013        1.33071364917172        0.00956451769886
O            0.41646073849826        2.50845072228544       -0.09394954836267
N           -1.33263751363416        1.03956450038394        0.13455664565093
C           -2.16263686495644        2.28525311412913        0.02845856236000
C           -1.87881941591091       -0.23607607506834        0.05241962476094
O           -3.06118175872908       -0.49417984323750        0.01795895628885
N           -0.96476691480036       -1.34693809001872        0.00922851891559
C           -1.41287603605493       -2.73227397561004       -0.02314081257218
H            3.62882249396949        1.28493275488468        0.98948128449893
H            3.95397961815717        1.04724575656950       -0.74392867438570
H            2.59133770053673        2.07750079422093       -0.21633945760119
H            3.56682506195483       -1.66218062784052        0.00578439492915
H           -1.94435074933303        3.32831043078515        0.60982762420093
H           -1.83602087551251        2.78611387928331       -0.87187822240255
H           -3.19593341317240        1.93996311669840       -0.03255456766147
H           -1.10243815486595       -3.26074590134840        0.88512769666756
H           -0.98672839753007       -3.25351996986161       -0.88655738659983
H           -2.49480641089572       -2.76474477222292       -0.09437085150764
H            1.38405024053744       -2.98145824495929        0.02346648823103
25
 energy: 15.990924892812 xtb: 6.6.1 (8d0f1dd)
C            3.17167504668100        1.18428938235004       -0.00032020873367
N            2.26816954398744        0.08140720711917       -0.03197382426737
C            2.58598376931822       -1.25768211930679        0.00642459620300
N            1.41017749098814       -1.97514569020411        0.01794320788100
C            0.37478636092169       -1.10754091106791        0.01972626703079
C            0.87784755340024        0.18416794010956        0.00621565402060
C            0.05672711458969        1.32822987774543        0.01782468316081
O            0.41652099167778        2.50775624727061       -0.08139510617820
N           -1.33348976222823        1.03546707684317        0.15632478224456
C           -2.15846211116174        2.28593017163589        0.01992235792287
C           -1.87643750865910       -0.23671770257197        0.05985083598028
O           -3.06202790207125       -0.49058408019883        0.02384391373986
N           -0.96493336508577       -1.34777859079214        0.01621637147877
C           -1.41608265921254       -2.73127498968484       -0.01961990116332
H            3.63561091600988        1.28584907718626        0.98618700514704
H            3.95454822144652        1.04945884547915       -0.74872171653826
H            2.59496688336561        2.08260070809108       -0.21625610150028
H            3.56861959803377       -1.66522124349767       -0.00529982160654
H           -2.00285399460578        3.31574288100861        0.62553849860676
H           -1.76291192673863        2.78703411482526       -0.83788482279371
H           -3.19899612068666        1.92846710896194       -0.11620963348282
H           -1.10523317022856       -3.26656341053075        0.88501351591928
H           -0.99875543519940       -3.25501593784287       -0.88699391190266
H           -2.50055371874706       -2.75329877790037       -0.08561802709746
H            1.37731885214099       -2.98054858285617        0.01629528207594
25
 energy: 14.992388362360 xtb: 6.6.1 (8d0f1dd)
C            3.17289608126619        1.18651586134357       -0.00046881484378
N            2.26755309123494        0.08591295380570       -0.03207712040665
C            2.58978006675461       -1.26003902472490        0.00570362653732
N            1.40948481507123       -1.97547606767597        0.01698678538553
C            0.37700582245108       -1.10730969151192        0.01961169079288
C            0.87614450864228        0.18504252351205        0.00737534078475
C            0.05285248950173        1.32684617234279        0.02115091695156
O            0.41467567154879        2.50757323509460       -0.06663666747276
N           -1.33886092334575        1.03350868601627        0.15711526733093
C           -2.16291381295722        2.28403503521257        0.01363008851262
C           -1.87508393110163       -0.23923157986968        0.05625945867087
O           -3.06244115415993       -0.49216864424596        0.01841110371320
N           -0.96480914009796       -1.34937368908089        0.01767559251860
C           -1.41692960994649       -2.73153415568457       -0.01676712169360
H            3.64065174019142        1.28713311049322        0.98480149355189
H            3.95405861543857        1.05233041262049       -0.75123802614691
H            2.59741645664500        2.08648075721442       -0.21375725671616
H            3.57132964253830       -1.66779007215814       -0.00888685145983
H           -2.02790810226011        3.30041737371549        0.62299719981935
H           -1.74238241254098        2.80017523869998       -0.83466911292069
H           -3.18052333128918        1.93082296139476       -0.12670889205993
H           -1.10357381651692       -3.26884511952895        0.88608394265668
H           -1.00711050646608       -3.25764389919776       -0.88695684256529
H           -2.50262546802453       -2.74763139901235       -0.07667443110650
H            1.37352787535895       -2.98072237660305        0.01407252631315
25
 energy: 14.886025623976 xtb: 6.6.1 (8d0f1dd)
C            3.17300337765487        1.18505584113652       -0.00116960501761
N            2.26766933691848        0.08406956093954       -0.03149748867015
C            2.58914275326975       -1.26070774624105        0.00555240521209
N            1.40983110932192       -1.97543607089812        0.01636043213263
C            0.37689594691459       -1.10802389463904        0.01935407090628
C            0.87716874878244        0.18379269063708        0.00797977726166
C            0.05430378707627        1.32823110630906        0.02384158218463
O            0.41653951191636        2.50800517215457       -0.06307604696239
N           -1.33857165511529        1.03611456877659        0.15478099312366
C           -2.16306796823654        2.28520742498992        0.01239671117918
C           -1.87443992473562       -0.23842712732629        0.05581897850936
O           -3.06100951912491       -0.49175232144838        0.01536275856749
N           -0.96446934386949       -1.34854851193486        0.01770495881189
C           -1.41661335059685       -2.73069095259605       -0.01600645717143
H            3.64114708712042        1.28580863817753        0.98348506672959
H            3.95330512294729        1.05158149377272       -0.75280185675009
H            2.59765679714348        2.08531028915674       -0.21363246835559
H            3.57128649610922       -1.66738744704310       -0.00928831142222
H           -2.02714726502788        3.30041492827007        0.62637919348662
H           -1.74664953732302        2.79970388065367       -0.83543971915455
H           -3.18790926975570        1.92945330746895       -0.12935381369619
H           -1.10157374766928       -3.26665458214904        0.88680647424278
H           -1.00709994052185       -3.25605333683583       -0.88651023968975
H           -2.50189155472268       -2.74901807096960       -0.07455224934016
H            1.37470766946033       -2.98102023818985        0.01453875002949
25
 energy: 14.545975333614 xtb: 6.6.1 (8d0f1dd)
C            3.17308409602186        1.18410090872764       -0.00162082288190
N            2.26742666245328        0.08323696584541       -0.03030171478219
C            2.58891907119572       -1.26156709233814        0.00581297277353
N            1.40985644403716       -1.97535904690737        0.01548097620187
C            0.37681520858979       -1.10860475832769        0.01909918379384
C            0.87761418595915        0.18288564529133        0.00853974027276
C            0.05538549908571        1.32904031566696        0.02605089213581
O            0.41817526367049        2.50831699334080       -0.05755886366486
N           -1.33923994022868        1.03802351817602        0.15040974976750
C           -2.16308200106316        2.28614987833094        0.00995973714953
C           -1.87397849007370       -0.23830529632593        0.05408410903633
O           -3.06024109083011       -0.49157114639235        0.01147387697933
N           -0.96450387203324       -1.34791167813766        0.01792151492776
C           -1.41625733688600       -2.73020580702639       -0.01487515719072
H            3.64239572657793        1.28488347550622        0.98223793425619
H            3.95212905370387        1.05105756662450       -0.75459588293339
H            2.59780511245828        2.08478168969709       -0.21298931045621
H            3.57163927798625       -1.66679301771950       -0.00961523870514
H           -2.02764549861898        3.29602205706982        0.62823207030547
H           -1.75115414700461        2.80305291035728       -0.83618237655965
H           -3.19032938277427        1.92982496614246       -0.12947235785869
H           -1.09872350239015       -3.26516702043554        0.88750405965321
H           -1.00778867186226       -3.25513708846110       -0.88618138151775
H           -2.50146044338203       -2.75050030516763       -0.07138802704878
H            1.37537344334400       -2.98122603136538        0.01500821249339
25
 energy: 14.076078155189 xtb: 6.6.1 (8d0f1dd)
C            3.17307703536574        1.18353830951462       -0.00222534980404
N            2.26704615966106        0.08290875950301       -0.02913411395090
C            2.58849871808555       -1.26189782730018        0.00618054912329
N            1.40969604094647       -1.97517669347890        0.01461294302740
C            0.37647128856875       -1.10886372901835        0.01902162151891
C            0.87766319330356        0.18253443198298        0.00884928710264
C            0.05608196901371        1.32948132654405        0.02727501280042
O            0.41900371437494        2.50865044537458       -0.05356781080103
N           -1.33998605712612        1.03900291865439        0.14673893013855
C           -2.16303868293326        2.28624386117027        0.00775054279983
C           -1.87401883733265       -0.23854034456133        0.05278830427460
O           -3.06019943529958       -0.49149109609021        0.00945222734344
N           -0.96484782489429       -1.34736956357193        0.01840687708919
C           -1.41605589757512       -2.72996217302041       -0.01380610526079
H            3.64357558083376        1.28438760782877        0.98096181645773
H            3.95099243797562        1.05037206500245       -0.75633300408460
H            2.59777395811661        2.08448445987516       -0.21282709157526
H            3.57176085065366       -1.66578870520678       -0.01009107429417
H           -2.03103423992698        3.28935756601415        0.63322399819878
H           -1.74872866780971        2.80839359548279       -0.83675265575823
H           -3.19138853260521        1.93046090298236       -0.13258357620069
H           -1.09650385498422       -3.26432432487811        0.88809975427895
H           -1.00836042473939       -3.25447212414079       -0.88582530390772
H           -2.50118548949197       -2.75169332909720       -0.06886025870370
H            1.37592166575538       -2.98120773739365        0.01567837633462
25
 energy: 13.804762128780 xtb: 6.6.1 (8d0f1dd)
C            3.17317525616465        1.18358605387495       -0.00210061876566
N            2.26708958764992        0.08305482555263       -0.02819910896054
C            2.58837815439213       -1.26197263194765        0.00694794544258
N            1.40943743348608       -1.97515189927396        0.01442340523009
C            0.37630739262011       -1.10869966683137        0.01885886380852
C            0.87760119279645        0.18281419035608        0.00853070298049
C            0.05663936273977        1.32940715496641        0.02615801760045
O            0.41933964005639        2.50885533990469       -0.05358141250708
N           -1.33991048035958        1.03894456056293        0.14377899562633
C           -2.16211327416193        2.28623512287368        0.00700974282093
C           -1.87413647891292       -0.23857176095674        0.05181180287733
O           -3.06054459132618       -0.49109212762753        0.00953926379253
N           -0.96514830145682       -1.34707971705333        0.01818146005928
C           -1.41596719407459       -2.72995573858237       -0.01389794348003
H            3.64401921445151        1.28470062256333        0.98097527421774
H            3.95086980313766        1.05007685194123       -0.75638010929153
H            2.59767914488671        2.08442478172771       -0.21276562762163
H            3.57176432740006       -1.66551878446872       -0.00950996747744
H           -2.03044249715476        3.28578785671532        0.63386197890062
H           -1.75213949501508        2.80967282601096       -0.83687362843304
H           -3.19014313410780        1.93140777911561       -0.12931997280922
H           -1.09616314934842       -3.26425663502091        0.88797044427737
H           -1.00813197304218       -3.25453366163553       -0.88593049889492
H           -2.50110894929298       -2.75195880515607       -0.06901530367732
H            1.37586367640808       -2.98114793543960        0.01656019043143
25
 energy: 13.684503928722 xtb: 6.6.1 (8d0f1dd)
C            3.17320598823299        1.18390713572079       -0.00206544877503
N            2.26736909555611        0.08317043270506       -0.02800260375950
C            2.58823768179188       -1.26163285332554        0.00743709388033
N            1.40931936772022       -1.97514976008830        0.01459086305607
C            0.37621942836028       -1.10839160117341        0.01876420443214
C            0.87751918185456        0.18328182853144        0.00806953809161
C            0.05655183239825        1.32918461685932        0.02472841841397
O            0.41864950472226        2.50891988903139       -0.05619144249062
N           -1.33955896785462        1.03822354552544        0.14402507450423
C           -2.16163105849245        2.28576960021087        0.00754824106575
C           -1.87444238374544       -0.23859044708155        0.05245161234317
O           -3.06097756494064       -0.49104796096539        0.01180973161005
N           -0.96523954456422       -1.34710702796048        0.01783817402582
C           -1.41606420654532       -2.73004451981625       -0.01450831818673
H            3.64371381732529        1.28540593995323        0.98121582051012
H            3.95129399934859        1.05006326144492       -0.75585973328225
H            2.59751788337320        2.08440760307627       -0.21331493440176
H            3.57149717164656       -1.66562523648220       -0.00927042547296
H           -2.03072604985620        3.28408130762827        0.63528456709735
H           -1.75027286183713        2.81004299612473       -0.83664432885742
H           -3.18976632495238        1.93191890213566       -0.12914116858110
H           -1.09732662386463       -3.26451954928654        0.88768206248968
H           -1.00746547086716       -3.25471599744878       -0.88606014732386
H           -2.50115275786240       -2.75149536606472       -0.07063922738106
H            1.37574353098872       -2.98102813708250        0.01728627313926
