72
 energy: -99.219364041020 gnorm: 0.007082201958 xtb: 6.6.1 (8d0f1dd)
N           -1.93073288294858        2.67307509781252        2.45054238478652
C           -1.84557136218541        2.05128129811918        1.36707135768333
C           -2.99864793388562        1.93254893907208        0.38157193721219
C           -3.51695505274367        0.49250561123040        0.36932822210560
C           -5.50677989515857        0.91113647137636       -1.03280515816406
C           -4.45058313756012        0.15454774689766       -0.72941012937060
O           -4.06801977865923       -0.98324245227953       -1.37840841125936
C           -5.00857318062606       -1.59430190314610       -2.23650527679966
C           -3.54007595101849       -1.79998775430231        1.43285365231096
O           -4.77011631854220       -2.10314245287593        0.93799120150348
C           -5.12325206604179       -3.46663278118534        1.03652676296493
C           -2.70837888932309       -2.68255934910845        1.96127669290446
C           -3.14071287817570       -0.38748208724282        1.30719060213095
C           -2.42830235606305        2.27261675805286       -1.01938033203183
C           -1.51305864418046        1.18623916785784       -1.61405962836928
C           -0.19036475925752        1.07303251227596       -0.95800434549543
N            0.40826909220527       -0.06964550748857       -0.63314441760761
C            1.78792113164317       -0.07077572328005       -0.20768063399809
C            2.74513220453057       -0.44317151387847       -1.35768713929927
C            4.16990775746051       -0.22777399670885       -0.92958124628999
C            4.78706134143266        0.99518514015207       -1.13434455491430
C            6.09214144342014        1.21140370474374       -0.71928477767155
C            6.80568852508386        0.20652103477565       -0.08321476591883
O            8.07431511757093        0.30323157015453        0.35927299494468
C            8.78087894044072        1.50547286833971        0.15853025468906
C            6.17928212861207       -1.05092116698535        0.13668927937961
O            6.94508552547367       -1.97002054359266        0.75941731734927
C            6.42324233389099       -3.25536183991014        0.99682685077864
C            4.87390477699222       -1.24372840997567       -0.28693991653431
C           -0.23261832781588       -1.35014639074242       -0.81415212831112
C           -4.08773723555012        2.87440827628522        0.80682779408375
C           -4.86061654844393        2.54056574773941        2.01612044892820
C           -4.12060101187438        4.26284438922587        0.29957094101101
H           -6.20135228280430        0.66584154045012       -1.81307718642578
H           -5.97001812060693       -1.72038598538305       -1.73073291043286
H           -4.59759586201511       -2.57274000968040       -2.48927299775076
H           -5.15017784652721       -1.00923779264339       -3.15025570254656
H           -5.15364989122625       -3.78103870010288        2.08516142148369
H           -6.10973054736502       -3.56975013833011        0.58471269886066
H           -4.39761666915169       -4.09414752148805        0.50663010164633
H           -1.74751576275759       -2.56677657757257        2.41418810062951
H           -2.43943374909204       -0.07498491777284        2.06799362962503
H           -3.26868076237833        2.39515016656231       -1.70271573933737
H           -1.88441844644015        3.21717845562419       -0.96611206394313
H           -2.03462842265366        0.23184191267093       -1.62362337061192
H           -1.33478703388902        1.47358321299719       -2.65940118598867
H           -0.93368868235723        1.56307343855961        0.98557012888947
H            0.40211341328252        1.97108450571842       -0.86093345872570
H            1.91013081837083       -0.78161069054020        0.61359151651012
H            2.05221210079356        0.92342099533613        0.15948350341816
H            2.51915844034051        0.19080510568165       -2.21702062188416
H            2.58795479031622       -1.48346524308945       -1.64429364543606
H            4.25659500452085        1.79115304426282       -1.63490694436670
H            6.54781006593017        2.17071456686709       -0.90178412570301
H            8.30339374018208        2.34269032979339        0.67696439405842
H            8.87662000626514        1.74098106684125       -0.90570391536495
H            9.76958478044449        1.33704291283699        0.58093618157351
H            7.22203665910879       -3.80863840546871        1.48687944895627
H            5.55127485499161       -3.21916404646914        1.65782871750450
H            6.15500799975350       -3.75875362894528        0.06277865218827
H            4.39295297220627       -2.19697374450947       -0.13293868231160
H           -0.34704468777212       -1.58759317066500       -1.87419083752270
H           -1.21971259894659       -1.35891428815537       -0.34738367276047
H            0.37400098190582       -2.12309146529066       -0.34933486249179
H           -5.70448007177607        1.80330683892632       -0.46398753227271
H           -4.23658406318742        2.76827306733415        2.89026971457916
H           -5.10472742845273        1.48103430577300        2.06908310136825
H           -5.76811853111357        3.13494761238576        2.08817933048006
H           -3.23939867460198        4.80504005966847        0.66129243410336
H           -4.10217891209567        4.31739056621123       -0.78838598733019
H           -5.00128901402721        4.78561229576986        0.66225166149644
H           -1.09863507887286        2.71351738690484        3.03051971571001
