25
 energy: 38.838040826321 xtb: 6.6.1 (8d0f1dd)
C            3.50863162792046        2.38884437752288        0.16436561838288
N            2.36797711252512       -0.43698214809690        0.06936398506381
C            2.48842805887246       -1.70079507613751        0.04366254949394
N            1.28285963049214       -2.36389409712860       -0.00342248410847
C            0.33732197362701       -1.38444824185950       -0.02246442812209
C            1.02301237737632       -0.18111201625258        0.00754825377348
C            0.26778308757144        1.05122601472579       -0.04463076138916
O            0.69873641880634        2.17829227911040       -0.09031590112030
N           -1.11442964423906        0.87684925642617       -0.04234292030940
C           -1.92670491086877        2.09045983744328       -0.04073393974652
C           -1.77859812486281       -0.31131265742852       -0.06937520433250
O           -2.99007835208575       -0.33231998243014       -0.09750555127158
N           -1.01877834880030       -1.48811511759166       -0.06365986441222
C           -1.77890877856910       -2.71197481379877       -0.07511813262396
H            4.07865463524822        2.54501076673250        1.01471383152955
H            3.84697584965517        2.50149030297829       -0.80712496898663
H            2.44690260540047        2.38112951803641        0.26897288396063
H            3.42951825795598       -2.19838852215232        0.00779852669127
H           -1.24401090008072        2.92705519547837       -0.03442255678127
H           -2.53493467304222        2.13446976940235       -0.93772800910990
H           -2.55285712238355        2.13522589165491        0.84845822437728
H           -1.60298770639210       -3.31709549135048        0.81835877367755
H           -1.57739296509528       -3.31161785251141       -0.96507518265685
H           -2.81929979364702       -2.36247347720185       -0.09124705247269
H            1.18666725014069       -3.36458069196925        0.00519282726430
