25
 energy: 40.227605926959 xtb: 6.6.1 (8d0f1dd)
C            3.41832880916720        2.20681123141430        0.14886173471369
N            2.38691713953374       -0.34721301239077        0.05080244635452
C            2.53547162410544       -1.61440490012251        0.04814932494694
N            1.33557241816438       -2.29590874010690        0.00426298439721
C            0.37179229764336       -1.33575814562722       -0.01901014249954
C            1.03584453931179       -0.11594987989245        0.00241630829184
C            0.25666707981009        1.10536222078368       -0.04507739762556
O            0.65152916140620        2.24570965507235       -0.09799949845692
N           -1.12881840073966        0.89964922246976       -0.03825655446280
C           -1.96930839842168        2.09289548840077       -0.03986431109193
C           -1.77008809597433       -0.30220735511029       -0.06326625029203
O           -2.98018481605474       -0.35676338814886       -0.09484971248191
N           -0.98436243681034       -1.46463199450493       -0.05835363545766
C           -1.72420461970276       -2.70537985708477       -0.07154099145939
H            3.96016687452932        2.33570568666152        1.02300778031593
H            3.82316717708542        2.25650652509679       -0.80354737911826
H            2.36059172554053        2.31845673797750        0.19485851537664
H            3.48150856384989       -2.11634216675075       -0.00806258708836
H           -1.30894956247460        2.94718642847124       -0.02707127383646
H           -2.55825562487041        2.13963689505242       -0.94640717726418
H           -2.60629510162655        2.11854812134710        0.84151366055674
H           -1.53461496558669       -3.29847196213775        0.82334602178578
H           -1.50996352246539       -3.29042836964500       -0.96530281451168
H           -2.77332454450304       -2.38708316267248       -0.08590348841180
H            1.24759403018025       -3.29785842737254        0.01051404461899
