25
 energy: 30.728658815408 xtb: 6.6.1 (8d0f1dd)
C            3.72827460175620        3.29174603537270        0.12749721240585
N            2.29222611194786       -0.74234035039443        0.04940980930992
C            2.31819821532569       -2.02979145728992        0.01548403974921
N            1.06073910135905       -2.59802456164271       -0.04699620551177
C            0.19492284697584       -1.54917571707909       -0.03372565899861
C            0.96735335241495       -0.39809899632879        0.01442307800823
C            0.33924809015687        0.90124602536697        0.00009504402249
O            0.88044803597667        1.98082603275455        0.00573732809295
N           -1.06107402304998        0.80730279129099       -0.03998258704476
C           -1.82161942341458        2.05088673201836       -0.05377406296810
C           -1.83083071404184       -0.33228554655285       -0.06300121214569
O           -3.03999695254114       -0.28340192880905       -0.08625232119510
N           -1.16123185417016       -1.55350220421905       -0.06135332523380
C           -1.93584612571090       -2.77174881946062       -0.07276242789324
H            4.18881854787710        3.51117525294767        1.07352247663644
H            4.33601816031224        3.26143461527989       -0.75542802021821
H            2.78591739387761        2.79222448272883        0.11055710435060
H            3.22007563025920       -2.60468191403582        0.00516201811474
H           -1.11839771897244        2.87921759478384       -0.06364771102002
H           -2.44976771546080        2.08911171688498       -0.94098451622052
H           -2.45101304537960        2.10288323910508        0.83352899679031
H           -1.74431993761484       -3.35942991580073        0.82472587366373
H           -1.72206965375328       -3.36068294860239       -0.96420337380952
H           -2.98538443811871       -2.48280376315527       -0.08385829665194
H            0.85957075313629       -3.58504191877043       -0.01983178411986
