25
 energy: -3.861045287365 xtb: 6.6.1 (8d0f1dd)
C            3.20258444211029        1.29318860787403        0.09245173299054
N            2.36675022570322        0.09647798296713        0.04057740275456
C            2.63011367079106       -1.27901764670881        0.03653678518809
N            1.42677681304313       -1.97635672977682        0.00328886248686
C            0.41439161893415       -1.09234131776186       -0.01110857844571
C            0.96115331145039        0.18539712721856        0.01128815416287
C            0.14344344175722        1.33708796088196       -0.00758930041660
O            0.51982075181258        2.51185617965185       -0.01230991803817
N           -1.24989346407994        1.01953941362901       -0.03063687801151
C           -2.18061815551228        2.13422183834248       -0.04757197910421
C           -1.81392818734244       -0.21732235106062       -0.04868813974897
O           -3.01646118098313       -0.39356227558282       -0.07235426496598
N           -0.93666864622068       -1.32142402321375       -0.03998289216148
C           -1.51302956438107       -2.64612710666435       -0.06188467490554
H            3.70451503069633        1.42286194930045        1.05969466264037
H            3.97988009805955        1.26083092781375       -0.68198960399316
H            2.56282762783031        2.15356706961879       -0.06802090567503
H            3.58792169313633       -1.73626770087520        0.04583459422482
H           -1.60505671273428        3.05519092012174       -0.02496838193309
H           -2.78139012266177        2.10235311591706       -0.95407572600067
H           -2.83373779778247        2.08703585494410        0.82195015879391
H           -1.23625033119126       -3.21143593469989        0.83072617834106
H           -1.20924599469814       -3.19226152538575       -0.95762164069044
H           -2.59584869484676       -2.51538715954407       -0.07722601684329
H            1.32118886578697       -2.97865066217441       -0.01070779700612
