25
 energy: 32.255940210602 xtb: 6.6.1 (8d0f1dd)
C            3.68518862918276        3.28680252853525        0.11660069570374
N            2.30497278326186       -0.71403666469788        0.09332559538456
C            2.33334932390375       -1.99527041665532        0.01721873133352
N            1.08154341486984       -2.57288993535632       -0.07360695322124
C            0.20951945424875       -1.53001765641650       -0.03897254142845
C            0.97610532505016       -0.37570257385230        0.04102648406100
C            0.32643692891609        0.91650097954575        0.01193376460601
O            0.85410733695299        2.00379097922318       -0.00154759027905
N           -1.06904214575390        0.81303428183549       -0.03895884310980
C           -1.84160763702105        2.04858376013255       -0.05546077976969
C           -1.82564533606795       -0.33071813504633       -0.06577236369641
O           -3.03460196457771       -0.27935382280883       -0.08915087548467
N           -1.14709659203663       -1.54638559332086       -0.07006558363966
C           -1.93075823389717       -2.76024288789714       -0.07604988916047
H            4.20116401664671        3.39737829800612        1.04880744607293
H            4.27889094346467        3.16096210994649       -0.76603466583616
H            2.75568712128728        2.76015330485892        0.15245885234920
H            3.23638342091720       -2.56485213980209       -0.00636792832126
H           -1.14626111054521        2.88163674794983       -0.08069820926814
H           -2.47500276255400        2.07303146541652       -0.93864661988889
H           -2.45833010741706        2.10164259744651        0.84101465592331
H           -1.75955727092518       -3.34748399050123        0.82534395361995
H           -1.73365857685008       -3.35817122976213       -0.96421332115440
H           -2.97489880379569       -2.45667208369756       -0.09006166146373
H            0.89653773143205       -3.56289531789171       -0.03409519697170
