25
 energy: 33.225628517161 xtb: 6.6.1 (8d0f1dd)
C            3.71261849523727        3.20771827518426        0.11945849774388
N            2.31686368211578       -0.70393240995989        0.14272309688001
C            2.34702688393766       -1.98090829395248        0.03599770412030
N            1.09817463478649       -2.55224419665730       -0.09064735998633
C            0.22096215854378       -1.51331314947527       -0.04241654203873
C            0.98806921525123       -0.36002358286658        0.06171603761006
C            0.31634385855169        0.93010857811065        0.00781290590667
O            0.82956163136484        2.02461232194296       -0.01569062002430
N           -1.07477341404101        0.81817366185637       -0.03940085170760
C           -1.85849907654365        2.04833229995779       -0.05500630651671
C           -1.82389528516430       -0.33348088085066       -0.06862240676901
O           -3.03339690738829       -0.28838920272808       -0.09273565275721
N           -1.13927407431861       -1.54324348658720       -0.07474447450517
C           -1.93112041779691       -2.74681437958412       -0.07838493820577
H            4.23356505441877        3.29435033418229        1.03280957855419
H            4.22774469664143        3.08251679142625       -0.79996709963051
H            2.75124130599414        2.76056146130475        0.19377553399236
H            3.26038618319512       -2.53110143605408       -0.00020844639988
H           -1.17494248544030        2.89169989602385       -0.09553183259810
H           -2.50167310961881        2.05951433245545       -0.93103223529370
H           -2.45457259159387        2.09525014117130        0.85406448678539
H           -1.76470681332237       -3.33282011991475        0.82114576197400
H           -1.73625953829424       -3.34315876820996       -0.96396941716134
H           -2.97098171167017       -2.42846594616453       -0.09196887659583
H            0.92836942515132       -3.54385320947046       -0.04761815875556
