25
 energy: 37.045610643311 xtb: 6.6.1 (8d0f1dd)
C            3.65348923704206        2.80105063504425        0.16833780161026
N            2.34047340786080       -0.59778081765666        0.17104469255195
C            2.41791945908949       -1.86066470137345        0.03769171860381
N            1.19612375241765       -2.48489624107738       -0.05000017960467
C            0.28492499537317       -1.46332204755402       -0.03291481806822
C            1.01825030865603       -0.28390674242409        0.04259689564099
C            0.29109041119786        0.99287784695154       -0.03006830660711
O            0.77106599347537        2.10042631072526       -0.10966859485151
N           -1.08317092728097        0.84309393256090       -0.04164221823271
C           -1.89310698700224        2.05625141560672       -0.04130615817287
C           -1.78978194591987       -0.32701819925592       -0.06800884309821
O           -3.00024293384219       -0.30604536729289       -0.09624343381208
N           -1.07514155857402       -1.52084541585340       -0.06913034894242
C           -1.87356585153355       -2.72113642774865       -0.08165975217576
H            4.21581417051659        2.90806160646751        1.05879323757110
H            3.97358740204146        2.89587527440075       -0.83501933677716
H            2.61786222026172        2.56449589608772        0.25764362661965
H            3.34864458459653       -2.36874049006080       -0.00523951635526
H           -1.18414482307557        2.88785168022173       -0.05941562053619
H           -2.54684868853830        2.05817909030063       -0.91122088484621
H           -2.49076499394328        2.10535330303334        0.86857109054160
H           -1.72955528907953       -3.32268135563249        0.81337325317238
H           -1.70523852038548       -3.32097072419432       -0.97232460256831
H           -2.90452223821232       -2.37146969661433       -0.09479989312434
H            1.08698372522044       -3.48976102748433       -0.01060728858110
