25
 energy: 41.147483586628 xtb: 6.6.1 (8d0f1dd)
C            3.37753551222384        2.11390007000238        0.14154506750061
N            2.39889067062242       -0.30514965406105        0.05620461605018
C            2.55778291895372       -1.57410796585728        0.06668146437084
N            1.36082144906345       -2.26277664561217        0.00829074612429
C            0.38862510345023       -1.31067843685594       -0.01847985271310
C            1.04317960732281       -0.08364657937970        0.00232581328166
C            0.24919370276454        1.13152082293529       -0.03974523270573
O            0.62516470087066        2.27856082351253       -0.08996938495580
N           -1.13927525355510        0.90861630628303       -0.03723907531461
C           -1.99307105714552        2.09297102022634       -0.04075707683846
C           -1.76950578247366       -0.29795323905042       -0.06253843944340
O           -2.97793264858069       -0.37024468170264       -0.09428700700299
N           -0.96769883206671       -1.45186004167848       -0.05684866468402
C           -1.69678068453089       -2.69908750128311       -0.07016557523591
H            3.88910242288943        2.23874835661661        1.03505385527800
H            3.81891553234507        2.13503001413700       -0.79604256094279
H            2.32842641428146        2.28977466393680        0.14480681626273
H            3.50750694041150       -2.07696811437040        0.01086300518746
H           -1.34393009352625        2.95691674034306       -0.02816463998412
H           -2.58725832518568        2.13067930297465       -0.94530684124507
H           -2.63103667818191        2.11370397427839        0.83994421416613
H           -1.50173956859862       -3.28751163435373        0.82606058530755
H           -1.47612894948629       -3.28037781339792       -0.96429726204883
H           -2.75019345580626       -2.39933756218498       -0.08508021741680
H            1.28034202370275       -3.26614902634656        0.01304962303623
