25
 energy: 36.815899181106 xtb: 6.6.1 (8d0f1dd)
C            3.61904979931255        2.69092963136190        0.17598577364212
N            2.33139829521847       -0.56048877050761        0.13962527857242
C            2.43095532408707       -1.82294688390091        0.04255136203983
N            1.21414806672737       -2.45802666756479       -0.03192243888480
C            0.29133933224657       -1.44638487546908       -0.02685769079050
C            1.01038691685420       -0.25950201995794        0.03364730358704
C            0.28207075629225        1.01091997885051       -0.03575853831872
O            0.74381291738998        2.12243587876047       -0.11595524710851
N           -1.09419280395771        0.85065940796126       -0.04405047734371
C           -1.89718257470910        2.07199739138658       -0.04210929484295
C           -1.79313908163910       -0.32209565340121       -0.06808777863971
O           -3.00376093151123       -0.30578810056716       -0.09696901256781
N           -1.06944494677705       -1.51304142155722       -0.06564040656391
C           -1.85472434157058       -2.71896252298575       -0.07993816159394
H            4.19001864365490        2.85551070145095        1.03621262675833
H            3.93280354397492        2.85379479086183       -0.80652204003057
H            2.57824061843093        2.50200080741211        0.28217589175143
H            3.36917137933438       -2.32493668302944        0.00760056762485
H           -1.17401033786136        2.89428205200048       -0.05278820158706
H           -2.54776563132764        2.07941170490443       -0.91529135723895
H           -2.50222099884565        2.12624751720515        0.86242920012394
H           -1.69921484608220       -3.32176421435412        0.81447859500015
H           -1.67427080321837       -3.31752170143132       -0.97106217563124
H           -2.89179415489423       -2.37291997769202       -0.09491118405399
H            1.10845283309504       -3.46134396550187       -0.01062774578544
