25
 energy: 42.859239266356 xtb: 6.6.1 (8d0f1dd)
C            3.26560471715024        1.85439397646544        0.11441561787641
N            2.42406377014766       -0.17400547936414        0.07890128664894
C            2.62057169038418       -1.45378652512002        0.08590405967386
N            1.43025330569090       -2.15317488586798        0.01726397669589
C            0.42704257403442       -1.23064697469327       -0.01275567307156
C            1.05030971757867        0.01492304688575        0.01685398370762
C            0.22826468278945        1.20744926692147       -0.01890124812327
O            0.56498895356236        2.37333171614639       -0.04586622732729
N           -1.17181750747653        0.94181601890209       -0.03447631881946
C           -2.06019176722541        2.09933477639542       -0.04410688933794
C           -1.77248576483888       -0.27437614878439       -0.05727755817134
O           -2.97697851965593       -0.39999556254457       -0.08590422830341
N           -0.93158954565877       -1.40649807882865       -0.04986887107272
C           -1.62385059351961       -2.67330833126216       -0.06580748805545
H            3.66215472173195        1.99106117066845        1.07275839361600
H            3.89603345553008        1.82474410142030       -0.72968167633052
H            2.29112016332934        2.26442767418047        0.00869455549070
H            3.56661285461413       -1.96352455397038        0.04970314444747
H           -1.44317212522333        2.98992997568578       -0.02620990731351
H           -2.65603626105105        2.10799871870201       -0.95043376834991
H           -2.70655300874957        2.09557002482453        0.83114609872046
H           -1.40403987510252       -3.25549567455872        0.82932817897295
H           -1.37920012638767       -3.24510331581999       -0.96072061485243
H           -2.68822066304245       -2.42851864694487       -0.07930589092739
H            1.34153540811669       -3.15336960285296        0.00038327479661
