25
 energy: 39.484627940721 xtb: 6.6.1 (8d0f1dd)
C            3.46097019834319        2.29941244793659        0.15695222191285
N            2.37688610738060       -0.39138431980351        0.05499205569095
C            2.51230462158668       -1.65663678875035        0.03973467066084
N            1.30945248812546       -2.32925851539780        0.00086606188689
C            0.35477671205532       -1.36032318998329       -0.02084256313822
C            1.02795409818077       -0.14828182597736        0.00426202764972
C            0.26113436763921        1.07802856284527       -0.04372810265428
O            0.67350174355693        2.21296022985794       -0.08391911705151
N           -1.12089582878792        0.88865425383005       -0.04011428244439
C           -1.94712105043540        2.09294421992070       -0.03918337945440
C           -1.77326574221214       -0.30704153285950       -0.06531397741896
O           -2.98434681270895       -0.34449209440617       -0.09579544512782
N           -1.00119213996995       -1.47672168591146       -0.06079227797221
C           -1.75105877801679       -2.70926659133154       -0.07333996008770
H            4.02536803984471        2.43613344283665        1.01547171536631
H            3.83180300646203        2.37774144024901       -0.80633128718610
H            2.39968784871533        2.35160808054315        0.23553096090766
H            3.45427023498528       -2.15791624386564       -0.00946972638724
H           -1.27427793155962        2.93638447633269       -0.02728008426783
H           -2.53523263309895        2.14797454311497       -0.94560187962102
H           -2.58147262877822        2.12611527194170        0.84403595997490
H           -1.56862588592094       -3.30908298625301        0.82055829017738
H           -1.54322578572571       -3.30217506190105       -0.96514427729330
H           -2.79546588692947       -2.37459589732420       -0.08888054716591
H            1.21235700144343       -3.32925511738384        0.00778912200731
