25
 energy: 37.283752651924 xtb: 6.6.1 (8d0f1dd)
C            3.58931574675581        2.58202020490165        0.17216775624941
N            2.33736797091859       -0.51924634075264        0.11512842610845
C            2.44266805970671       -1.78133765947091        0.04759305644200
N            1.23155596886080       -2.42648777573209       -0.01997535437706
C            0.30199915153145       -1.42534970182567       -0.02349479466230
C            1.00876723556646       -0.23362632314045        0.03049597523216
C            0.27287346390020        1.01932908253783       -0.03881289329346
O            0.71133728687804        2.14363206152217       -0.11098814903659
N           -1.10528487410342        0.85821114013444       -0.04537157580827
C           -1.90201024556175        2.08357538466897       -0.04331856578326
C           -1.79322178970891       -0.31727175885375       -0.06862393181273
O           -3.00393066355551       -0.31596851438301       -0.09680045086159
N           -1.05581451161107       -1.50166902706079       -0.06393583290593
C           -1.83337285903474       -2.71322893653044       -0.07872095897152
H            4.13873598501620        2.76933727291186        1.03653710507839
H            3.92224374178917        2.72541900360578       -0.80272374717866
H            2.53634721330975        2.45635909713122        0.26746632742260
H            3.37898504191773       -2.27938984775819        0.01368239126136
H           -1.19240517366851        2.90955093025373       -0.05020122705752
H           -2.54413891168547        2.09979415426825       -0.92192018193103
H           -2.50928589448720        2.14656527863849        0.85796585863897
H           -1.66935558376558       -3.31833743222797        0.81469743321228
H           -1.64344021978321       -3.31324169257146       -0.96879377205753
H           -2.87249321705198       -2.35997585170476       -0.09565549255628
H            1.13162283516673       -3.42855654685701       -0.00824828828163
