25
 energy: -6.075666089127 xtb: 6.6.1 (8d0f1dd)
C            3.22437534809524        1.23460578185945        0.09067861983029
N            2.33304267591089        0.10431083660324        0.03619871543181
C            2.61414388515876       -1.25500577661372        0.03247240511637
N            1.42119629163786       -1.95306995625903        0.00086883077013
C            0.40464242680308       -1.07349947352460       -0.01065999471961
C            0.93791252860087        0.20823454350230        0.01183420261605
C            0.12888685934495        1.36567488223402       -0.00653706580053
O            0.50865921632694        2.54041053746636       -0.00715225946654
N           -1.25945820551664        1.03715164754520       -0.03091988335606
C           -2.20197599294657        2.14167057691497       -0.04865583480136
C           -1.81669747397891       -0.20442188362940       -0.04786240360302
O           -3.01730046154675       -0.38535492709610       -0.06987741143066
N           -0.94005731675530       -1.30801121765447       -0.03867796329009
C           -1.49211992199143       -2.64259609127246       -0.06093151814735
H            3.72019877411276        1.32064582131574        1.06503147575386
H            4.00200016319288        1.15027501272590       -0.67627347203237
H            2.63579333276194        2.13325230597102       -0.07719248631941
H            3.58207912527131       -1.68986951687268        0.04305408036909
H           -1.63671974081486        3.07032143845269       -0.02507534155531
H           -2.80364030991319        2.09682762951713       -0.95473753190974
H           -2.85640610727274        2.08119681151382        0.81940841823803
H           -1.20087683952737       -3.20173714019366        0.83123668490453
H           -1.17576323389285       -3.18223267922491       -0.95665499877410
H           -2.57651031892462       -2.53543402788138       -0.07527207220671
H            1.34342734897393       -2.95634281464832       -0.01231961735459
