25
 energy: 12.985051179424 xtb: 6.6.1 (8d0f1dd)
C            3.15958880165559        1.45392110544456        0.10419769389719
N            2.44375919996877        0.04914193778437        0.08116124809971
C            2.67905835333752       -1.35412461765038        0.06316823740150
N            1.46735491936094       -2.05115454970384        0.01202354952762
C            0.44931115659692       -1.16302408025474       -0.01026234706721
C            1.01918718266584        0.11063715446837        0.01760426227085
C            0.19154108219387        1.25674179650353       -0.01294998719712
O            0.55437550261050        2.43448361587403       -0.02673279104337
N           -1.21052897366089        0.97198875393122       -0.03354940859866
C           -2.10929976846314        2.11396501219077       -0.04616038812734
C           -1.78621246739616       -0.25217316628857       -0.05428044994952
O           -2.98986707649568       -0.41647337465890       -0.08217236363195
N           -0.91785764706679       -1.36886759364729       -0.04575612517467
C           -1.57147872399757       -2.65833222729089       -0.06415467111644
H            3.67546614904033        1.72417128339642        1.03457478097903
H            3.90908722019848        1.57422434100773       -0.69409937578465
H            2.36706170496596        2.18347235535245       -0.02185420081901
H            3.60362289784271       -1.86966882760444        0.04063100147381
H           -1.50338926977155        3.01477596658272       -0.02592353480626
H           -2.70662917376308        2.10542677841583       -0.95285355272813
H           -2.75733349715852        2.09355789801167        0.82753488377360
H           -1.33449103734711       -3.23761274497559        0.82956784893006
H           -1.30967340149716       -3.22286647143876       -0.96014354156114
H           -2.64565613188679       -2.45936936608736       -0.07776307800632
H            1.33061614588446       -3.05562521548665       -0.00858481031412
