25
 energy: 36.848711395277 xtb: 6.6.1 (8d0f1dd)
C            3.69076811018465        2.89858125794931        0.17201538476345
N            2.33838034735800       -0.63385570979051        0.22180347422207
C            2.40183816203082       -1.89465720217008        0.04126440434497
N            1.17376710990079       -2.50363041531302       -0.07289641975276
C            0.27231145218479       -1.47659823012243       -0.03951526180508
C            1.01791689506578       -0.30606680794758        0.07039144029661
C            0.29862032952998        0.97619103751092       -0.01815525536869
O            0.79548125348447        2.08170368312403       -0.09077348000544
N           -1.07411464691671        0.83827846883071       -0.04517678316559
C           -1.88293560088126        2.05352259893282       -0.04453266708837
C           -1.79531156201644       -0.32838974457515       -0.06837178718515
O           -3.00541146934451       -0.29313898867480       -0.09440892550758
N           -1.08905719565014       -1.52786030650237       -0.07259314767971
C           -1.88817450270283       -2.72676891152239       -0.08182641224813
H            4.27343880366125        3.01095900199400        1.04738527360872
H            4.02229631725093        3.01487646595041       -0.81607373286724
H            2.66724913127133        2.61172484037477        0.25458655584959
H            3.32940815771973       -2.40849971801696       -0.00480214710199
H           -1.18742621893437        2.88630869198716       -0.07429714727005
H           -2.53561518431420        2.06062409293465       -0.91440065047986
H           -2.47239678893992        2.09574984765677        0.87104460962421
H           -1.75466767076228       -3.32583526852400        0.81483406128451
H           -1.72405074080690       -3.32736609372332       -0.97174251309917
H           -2.92408528325594       -2.38412677722452       -0.09391130630839
H            1.05116378615077       -3.50632368279780       -0.02633594448231
