25
 energy: 0.316978740263 xtb: 6.6.1 (8d0f1dd)
C            3.17559318006527        1.34996165413224        0.09707362831122
N            2.39642408983882        0.08449598420160        0.05663203962493
C            2.64516428615218       -1.30499712751038        0.04283124740192
N            1.43416684566637       -2.00189055830053        0.00577532550108
C            0.42487531014352       -1.11302875600844       -0.01030713205333
C            0.98157750333875        0.16161412345564        0.01396318544576
C            0.15910549699047        1.31161009038278       -0.00916595383464
O            0.53203759307818        2.48655820032424       -0.01806964601163
N           -1.23757871419959        1.00443655279562       -0.03147499119450
C           -2.15598061661088        2.12953788255095       -0.04750887422392
C           -1.80605930996120       -0.22869029252629       -0.05030079339136
O           -3.00900504556497       -0.40239677176834       -0.07525003444119
N           -0.93152268387161       -1.33639577098312       -0.04184129615662
C           -1.53165760296652       -2.65156489364908       -0.06207383644239
H            3.69759184273765        1.52649921678038        1.04897744422432
H            3.95483061161520        1.37051912714876       -0.68189570036703
H            2.48650261553265        2.16751572067425       -0.05363897087837
H            3.59272163638623       -1.78148907330388        0.04295190018889
H           -1.56873240018397        3.04236045226270       -0.02563729087638
H           -2.75565407964444        2.10593270357906       -0.95415137956480
H           -2.80757622954665        2.09330119564081        0.82341430471864
H           -1.26712289856128       -3.22215448024459        0.83055321276155
H           -1.24122667106534       -3.20509440563797       -0.95727603617348
H           -2.61272400519205       -2.50185894839690       -0.07670207006105
H            1.29820782010711       -3.00187027132071       -0.01256278927001
