  25
        -42.14415901
 C          3.1830304728        1.1462414879        0.2036986221
 N          2.2236164748        0.0847709274        0.0735138017
 C          2.4912799442       -1.1936986417       -0.0767151532
 N          1.3432287694       -1.8986233304       -0.1256052125
 C          0.2887889423       -1.0319942000        0.0056792486
 C          0.8524977068        0.2504120910        0.1168534218
 C          0.1446415673        1.5136693178       -0.0354276319
 O          0.6515779202        2.6024558547       -0.1223441655
 N         -1.2415324323        1.2485769742       -0.1755825119
 C         -2.0875158918        2.1405847233       -0.4652441721
 C         -1.9446799350       -0.4450017426        0.6679506975
 O         -3.1099421098       -0.4914124962        0.4065234567
 N         -0.9974501422       -1.3586405951        0.0415925183
 C         -1.5031024214       -2.6086815928       -0.4858367506
 H          3.2712498079        1.4401591609        1.2519112008
 H          4.1542272282        0.8188674629       -0.1609196270
 H          2.8426569377        2.0183097380       -0.3560897419
 H          3.4726359965       -1.6209503964       -0.1556391751
 H         -1.8285207232        3.1864077031       -0.6003432485
 H         -3.1161180714        1.8237751428       -0.5815876785
 H         -1.5145877872       -0.0726292685        1.6079435929
 H         -1.3321065632       -3.4337878447        0.2087654811
 H         -1.0510208885       -2.8297074733       -1.4518247665
 H         -2.5779612551       -2.4832176298       -0.6170456375
 H          1.2698388474       -2.8986961346       -0.2474878777
