25
 energy: 0.000000000000 xtb: 6.6.1 (8d0f1dd)
C            3.23720132972391        1.16630909158653        0.08434468864950
N            2.29877796055224        0.07527476373246        0.03981602671198
C            2.58028186251803       -1.21425391179017        0.03006175752192
N            1.43813944744728       -1.93419254010258        0.00098261751768
C            0.39035684826767       -1.05887462812143       -0.00790371763344
C            0.93510047688824        0.21347817468824        0.01709077332874
C            0.09450143016486        1.40504290868848       -0.00410946993748
O            0.49712746915594        2.54126690785742       -0.00342325656480
N           -1.25076628431515        1.06271869620815       -0.03085477937476
C           -2.21907191394203        2.15522079838987       -0.05001256521996
C           -1.81739470187490       -0.20012724136556       -0.04692818139228
O           -2.99983858926755       -0.37846413507442       -0.07008877579474
N           -0.92618577614240       -1.30210203518959       -0.03682761236648
C           -1.46982251276835       -2.64643077634382       -0.06029819901142
H            3.71247229913541        1.21471443890471        1.06488839270555
H            4.00791460421487        1.03430799217987       -0.67357688121503
H            2.69909982127087        2.09770098766290       -0.09130154035862
H            3.56654087521359       -1.63682977417947        0.04233139674524
H           -1.67107945562430        3.09322822573871       -0.02552706696334
H           -2.82428927394145        2.09428605349656       -0.95318074103337
H           -2.87644002486466        2.07745706351925        0.81450059976605
H           -1.17061985538665       -3.19584861009707        0.83242224714061
H           -1.14560246782873       -3.17511580834413       -0.95688266944647
H           -2.55549768731684       -2.55659960601237       -0.07459039105944
H            1.38130842369251       -2.94313824728853       -0.01389874052104
25
 energy: -6.165552209478 xtb: 6.6.1 (8d0f1dd)
C            3.24220979083276        1.17773932609615        0.08617935664504
N            2.32282565870957        0.09079017831236        0.03435592362419
C            2.63035849822969       -1.25892410163767        0.03268436577638
N            1.43296373837049       -1.94055180440100        0.00216851418313
C            0.40992566318723       -1.06017589487658       -0.00838997918250
C            0.93391846969604        0.22430336503616        0.01403045758168
C            0.11945378026922        1.38363503538974       -0.00568938099530
O            0.48922401302461        2.56159145935893       -0.00451270645645
N           -1.26759093062520        1.05133636676379       -0.03129880582907
C           -2.22371010537920        2.14907714009534       -0.04938158802447
C           -1.81544847065500       -0.19442811340170       -0.04744153471551
O           -3.01392737039935       -0.38390904363777       -0.07030096065605
N           -0.93277103022856       -1.29589983287320       -0.03746601117354
C           -1.47248455805271       -2.63661839045989       -0.06061781393433
H            3.71640491985280        1.23017000914260        1.06977408808637
H            4.01082661217360        1.05090800550503       -0.67717654406264
H            2.68968004808356        2.10042181381114       -0.09102729054773
H            3.60840117704428       -1.72228898932139        0.04640038626328
H           -1.66996157981091        3.08554250949917       -0.02501115748124
H           -2.83104207074218        2.09451008309730       -0.95300115596193
H           -2.88229708524803        2.07744060438013        0.81611424901847
H           -1.17110766131607       -3.19033028180901        0.83149728812549
H           -1.14628189565714       -3.16989069805477       -0.95658682752494
H           -2.55860977289478       -2.54765133565994       -0.07496901471800
H            1.36690221671895       -2.94306828711835       -0.01309236416681
25
 energy: -4.673129094491 xtb: 6.6.1 (8d0f1dd)
C            3.24409125176109        1.18238492397451        0.08609834767124
N            2.34218985125306        0.07961249753014        0.03325527959424
C            2.65888565860501       -1.28048665230243        0.03354800027341
N            1.44345567912936       -1.94164030524256        0.00453557814785
C            0.41991314308491       -1.05822660299333       -0.00871332373503
C            0.94836854263708        0.22400602704388        0.01232598018734
C            0.12631229768841        1.38371896300850       -0.00590281255573
O            0.48571212525838        2.56498518100239       -0.00437237530141
N           -1.26640759463168        1.05199195930250       -0.03127317453061
C           -2.22722930993181        2.14744633740269       -0.04903059804735
C           -1.81556472697779       -0.19243133296635       -0.04776543063811
O           -3.01444435374533       -0.38275055657335       -0.07042187680707
N           -0.92776023183790       -1.29089695870185       -0.03788989273516
C           -1.47344146401851       -2.63080544917020       -0.06092038028347
H            3.71543785277194        1.24137357772046        1.07061083573755
H            4.01153502731383        1.06493639133891       -0.67897211972388
H            2.68002948688194        2.09968959838104       -0.09129697121396
H            3.63758292383736       -1.80033830251300        0.05082799165795
H           -1.67642844276555        3.08522700105741       -0.02462346514342
H           -2.83576875278992        2.09224513335584       -0.95242280178085
H           -2.88683337283232        2.07495950028168        0.81627246177341
H           -1.17307657075901       -3.18545851503678        0.83079692707869
H           -1.14853673886924       -3.16480957751520       -0.95675908323907
H           -2.56039952696304       -2.54092725683456       -0.07515407259161
H            1.35928426818587       -2.94239079098462       -0.01180865577847
25
 energy: -1.701406539041 xtb: 6.6.1 (8d0f1dd)
C            3.24594894656696        1.18565016690857        0.08634289569506
N            2.36008691480199        0.06783921747957        0.03157694867552
C            2.68480867460195       -1.30331592730195        0.03357739468379
N            1.45109569705213       -1.94195850595081        0.00546441904490
C            0.42869021119354       -1.05524323896297       -0.00893970603516
C            0.96118043826983        0.22472254629693        0.01144043843026
C            0.12961409812554        1.38650877437238       -0.00569302052747
O            0.48076824438530        2.56930614149594       -0.00406071254718
N           -1.26679722579355        1.05387606687318       -0.03128174521497
C           -2.23208417028976        2.14770387574344       -0.04933872313580
C           -1.81538878755558       -0.19030914182510       -0.04811934694223
O           -3.01454202184925       -0.38260004095559       -0.07084171579734
N           -0.92292894301632       -1.28585633342736       -0.03800506592479
C           -1.47273968249961       -2.62582755674233       -0.06045113529674
H            3.71613329908002        1.25050373232685        1.07092336912144
H            4.01299903492425        1.07970125758203       -0.68012685062600
H            2.67080584090450        2.09769248518977       -0.08925936022718
H            3.66732030596585       -1.87998941592281        0.05268885543349
H           -1.68404871087138        3.08663706995575       -0.02482010394366
H           -2.84193817204312        2.09333392645374       -0.95230754297287
H           -2.89356951949238        2.07602580465609        0.81502748908448
H           -1.17355603319237       -3.18139410075722        0.83111525749452
H           -1.14919823748374       -3.16116883848685       -0.95597373640538
H           -2.56020791645929       -2.53457045627966       -0.07462137560894
H            1.35040754754040       -2.94080378124631       -0.01151231052186
25
 energy: 2.891062958495 xtb: 6.6.1 (8d0f1dd)
C            3.24577354332750        1.18919226694178        0.08534325151424
N            2.37490119102411        0.05661122036255        0.02993632717145
C            2.71007654152838       -1.32549332536798        0.03539613538824
N            1.45746146535713       -1.94267431145947        0.00698258236749
C            0.43584686187300       -1.05440859682794       -0.00758793814299
C            0.96795194504034        0.22490369963948        0.01207455474614
C            0.12932611587094        1.38864797538425       -0.00543105237790
O            0.47289319173538        2.57250996974668       -0.00389603216812
N           -1.26878359716717        1.05531242737658       -0.03142234275993
C           -2.23728758581521        2.14744154451598       -0.04845601934442
C           -1.81532631793089       -0.18882848160595       -0.04931202772937
O           -3.01491035628119       -0.38296761691037       -0.07276746878394
N           -0.91908899603443       -1.28196224353795       -0.03821770262038
C           -1.47447656747535       -2.62080703889743       -0.06119416911233
H            3.71478836485224        1.26234633288096        1.07004668414241
H            4.01405563645077        1.09381177842382       -0.68102347542043
H            2.66120794292256        2.09626694129795       -0.09083526696971
H            3.70985917412905       -1.94873860318674        0.05208376894108
H           -1.69093100998853        3.08709592638414       -0.02343226110356
H           -2.84824939018348        2.09347552055417       -0.95095631877937
H           -2.89923024738904        2.07473315701355        0.81575813148151
H           -1.17837163981634       -3.17800105249708        0.83033506345831
H           -1.15263198264492       -3.15744372983260       -0.95648064499662
H           -2.56212440180242       -2.52619932738996       -0.07627927356561
H            1.34251455674375       -2.93988832785958       -0.00726154458221
25
 energy: 9.387842721811 xtb: 6.6.1 (8d0f1dd)
C            3.24393496227062        1.19241707250256        0.08256103209913
N            2.38207726661450        0.05076018267867        0.02382315302445
C            2.73322698474281       -1.34164708506540        0.03619896074624
N            1.46301866929964       -1.94096045077051        0.00853185342653
C            0.43757785148134       -1.05209813685480       -0.00740579689746
C            0.96962593096373        0.22639183966087        0.01072877272469
C            0.12586094175037        1.39211530318175       -0.00444899765706
O            0.46213302731136        2.57676187856085       -0.00320794630803
N           -1.27290591242810        1.05750649282383       -0.03071496715568
C           -2.24359491562032        2.14900006300428       -0.04666070216340
C           -1.81674049890993       -0.18729787046124       -0.05031527028731
O           -3.01581353633448       -0.38427522580942       -0.07635726558565
N           -0.91765229024539       -1.27847993065036       -0.03810241178433
C           -1.47439961207105       -2.61722915018870       -0.06245904530667
H            3.71216895405889        1.26840648873951        1.06774312613604
H            4.01463552716433        1.10696920637737       -0.68290345656216
H            2.65328469797781        2.09624553861041       -0.09170976708052
H            3.77259558412409       -1.99823842992167        0.05606733408370
H           -1.69748106538758        3.08880487316933       -0.02133650987777
H           -2.85578756538214        2.09676158505797       -0.94855951468902
H           -2.90619675284697        2.07690204625893        0.81726673658896
H           -1.18101139895713       -3.17520450577106        0.82943748552569
H           -1.15012938535314       -3.15372786278237       -0.95684000629272
H           -2.56225625985529       -2.52258855596362       -0.08090183199825
H            1.33606839533496       -2.93695579408735        0.00158902551342
25
 energy: 19.893878347586 xtb: 6.6.1 (8d0f1dd)
C            3.23812520204631        1.19670274889034        0.08770085560288
N            2.38167061270171        0.05079001300001        0.03177970133134
C            2.74981210816284       -1.35188126520404        0.02933292799376
N            1.46687703771294       -1.93763455510253        0.00450837857379
C            0.43658997260827       -1.04981189823562       -0.00291953972613
C            0.96725450400284        0.22847728642367        0.01982218863107
C            0.12213805077932        1.39700324278409       -0.00172443955721
O            0.45601272213325        2.58035649871546       -0.00363458838856
N           -1.27609057548260        1.06132096798345       -0.03185863593568
C           -2.25095583445228        2.15005540253551       -0.05034326543375
C           -1.81907862860197       -0.18514153454574       -0.04992585480954
O           -3.01789234170298       -0.38249236852557       -0.07544701605835
N           -0.91910781861213       -1.27500703118188       -0.03583172223839
C           -1.47577763058558       -2.61232055035648       -0.06028463942857
H            3.71201082178852        1.28235420749201        1.07037412337903
H            4.00603408173824        1.11382678275609       -0.68143502924821
H            2.63796587887512        2.09297023599831       -0.08972165079290
H            3.85864865010416       -2.05704284549870        0.05604393043416
H           -1.70951623934099        3.09261940091399       -0.02533263234171
H           -2.86338842852772        2.09595772664192       -0.95195923717339
H           -2.91557767909221        2.07732313691184        0.81194216656346
H           -1.17676635563978       -3.16812180040518        0.83072501193197
H           -1.15727616571326       -3.14940473837590       -0.95650778447537
H           -2.56314454823777       -2.51240841665135       -0.07177337312891
H            1.33504352945942       -2.93249359738852       -0.01757154471315
25
 energy: 47.060309374895 xtb: 6.6.1 (8d0f1dd)
C            3.21985432064173        1.20572955145175        0.08146755238188
N            2.32865216198015        0.06924886591196        0.02850402388130
C            2.64953417313044       -1.24494111685368        0.02333776149483
N            1.44771247577538       -1.89667685248976        0.00428291056634
C            0.39952421330445       -1.02291910867922       -0.00508094130051
C            0.93724829719389        0.24674108065667        0.01637832935980
C            0.08857324140980        1.42164341732737       -0.00190217374780
O            0.43680026097120        2.58373334707438       -0.00177313290778
N           -1.28157023211812        1.07517883066248       -0.03127408452103
C           -2.26316822885304        2.15465140474130       -0.04739146182030
C           -1.83277433904349       -0.18693575383762       -0.05011152298670
O           -3.02905490354854       -0.37042129959857       -0.07530429093161
N           -0.94158105855996       -1.26365548628537       -0.03747616981425
C           -1.48391390926009       -2.60797360432813       -0.06221394106568
H            3.69574629781246        1.28252642440097        1.06250354197015
H            3.99625283660728        1.11967311348615       -0.67871007381137
H            2.63227538055789        2.10672171552035       -0.09464544953752
H            4.27347865347066       -2.36961446172042        0.07922202280049
H           -1.72377058462349        3.09794528740922       -0.02208624093485
H           -2.87313333773362        2.09365886509482       -0.94880486920160
H           -2.92393624098702        2.07359831455965        0.81579401267739
H           -1.18417608282102       -3.16265175211479        0.82878213326254
H           -1.15805352941681       -3.14195257087632       -0.95689956909621
H           -2.57035088685282       -2.51018282332653       -0.07786533330175
H            1.34788190028720       -2.90064753017086       -0.00583136776739
25
 energy: 46.932762269606 xtb: 6.6.1 (8d0f1dd)
C            3.21354460292593        1.21306382473902        0.08288442678629
N            2.31944616621248        0.07847641384806        0.02626756816037
C            2.64442894097233       -1.23526549110724        0.01801244856777
N            1.44214545074801       -1.88759198624661        0.00066456559365
C            0.39202334461117       -1.01678207017506       -0.00602732472389
C            0.92863781715782        0.25337640804175        0.01465487757638
C            0.07933717573715        1.42745607952442       -0.00395030346303
O            0.42508755848442        2.58960863836822       -0.00283273619040
N           -1.28908849224080        1.07802271434514       -0.03136554092549
C           -2.27049364402233        2.15724788025952       -0.04786594402344
C           -1.83973791007348       -0.18521284523468       -0.04938376127773
O           -3.03596544590419       -0.36913588117463       -0.07598996776444
N           -0.94786207328889       -1.25982386225846       -0.03610021814410
C           -1.48718096176267       -2.60439227127290       -0.06091452784553
H            3.69057169187861        1.29068375656842        1.06378859800580
H            3.99128696963541        1.13087822979249       -0.67673952454852
H            2.62604636890885        2.11340232775777       -0.09357086313773
H            4.37215431452922       -2.43953435773756        0.08094005336822
H           -1.72977759814840        3.09978086430030       -0.02304501490078
H           -2.88079674759132        2.09530984355120       -0.94887237377840
H           -2.93107197337787        2.07548891966461        0.81525193158434
H           -1.18658774427527       -3.15955446174376        0.82961458135127
H           -1.16206611486258       -3.13821565319439       -0.95603882683893
H           -2.57324890673413       -2.50465124760692       -0.07550949720836
H            1.34735042262519       -2.89166817828987       -0.00917991722579
25
 energy: 47.536768257550 xtb: 6.6.1 (8d0f1dd)
C            3.20739902795794        1.21894096365859        0.08137796602268
N            2.30788095096919        0.08905843178443        0.02568515829695
C            2.63656515322735       -1.22419306564952        0.01613979534542
N            1.43540164854543       -1.87853554132614        0.00204405703710
C            0.38354082383609       -1.01072485023428       -0.00493553718790
C            0.91838958167701        0.26020046213589        0.01599062389313
C            0.06997206184421        1.43278240153468       -0.00424424545921
O            0.41479200298144        2.59559930652665       -0.00266291921785
N           -1.29726014126728        1.08128622963850       -0.03178712466388
C           -2.27885498943505        2.15971661810824       -0.04692007011047
C           -1.84682634452375       -0.18270043947919       -0.05039702805832
O           -3.04299959672788       -0.36728990381809       -0.07732340346426
N           -0.95499897020032       -1.25584148428970       -0.03656670758573
C           -1.49056087172797       -2.60081101014664       -0.06256219232453
H            3.68519145110358        1.29829818409403        1.06181798694666
H            3.98387585096138        1.12650206225275       -0.67771518107146
H            2.62910394114110        2.12383430150704       -0.09672509886084
H            4.47909988298679       -2.51890895158957        0.08228150424394
H           -1.73865539729954        3.10260806692809       -0.02098326746332
H           -2.88960700152031        2.09665359075366       -0.94729488008673
H           -2.93905968228263        2.07463046647468        0.81614297195198
H           -1.18995097781629       -3.15556926678170        0.82838060604566
H           -1.16350545337819       -3.13411683948714       -0.95753725719738
H           -2.57693229279164       -2.50256095052617       -0.07819406685365
H            1.34705937599411       -2.88289551764770       -0.00650052696805
25
 energy: 48.540179532867 xtb: 6.6.1 (8d0f1dd)
C            3.20017528496159        1.22336813175114        0.08220182613034
N            2.29394658977733        0.10006076649076        0.02617085654502
C            2.62539946286066       -1.21150771099322        0.01655759642957
N            1.42698358561412       -1.86935106416720        0.00133508236203
C            0.37384035322173       -1.00459274787946       -0.00518613097624
C            0.90648659340185        0.26719235837965        0.01621902464573
C            0.05881131527125        1.43801792093932       -0.00467486133195
O            0.40305760186210        2.60160579195260       -0.00217172741486
N           -1.30647339986229        1.08480608556553       -0.03202830232744
C           -2.28745557793994        2.16306324153307       -0.04747497249423
C           -1.85474067365370       -0.18033464076417       -0.05032869800100
O           -3.05085877994088       -0.36507141740065       -0.07696046216639
N           -0.96338079230617       -1.25227983407533       -0.03677106915518
C           -1.49396601115878       -2.59853434034347       -0.06251064645672
H            3.67874401391514        1.29598946096713        1.06257386377220
H            3.97462492002503        1.12259080499027       -0.67701433938177
H            2.63035602437072        2.13305303324977       -0.09599249103342
H            4.59494538042766       -2.60142450808347        0.08431416904957
H           -1.74623632073532        3.10551180863949       -0.02119094191784
H           -2.89785787740588        2.10012111963114       -0.94800837721057
H           -2.94731631209886        2.07888427651999        0.81597595117155
H           -1.19202561218709       -3.15217484470798        0.82861712081842
H           -1.16550566428103       -3.13106232847315       -0.95744041700219
H           -2.58050087237006       -2.50760642781346       -0.07791768771125
H            1.34672011101940       -2.87408448553888       -0.00857990960317
25
 energy: 49.647835798625 xtb: 6.6.1 (8d0f1dd)
C            3.19191199567470        1.22768799552590        0.08234925914774
N            2.27885661801773        0.11115766611649        0.02670117910499
C            2.61284772111861       -1.19745016768191        0.01666854654513
N            1.41769535900528       -1.86029741638747        0.00037632504293
C            0.36341109745933       -0.99854680651459       -0.00530399219946
C            0.89382061855292        0.27390009622637        0.01639578523889
C            0.04777156339447        1.44255913258032       -0.00483461988654
O            0.39206783818823        2.60657056782934       -0.00229273079772
N           -1.31540075119765        1.08835164092989       -0.03243958199033
C           -2.29526529855861        2.16652670389997       -0.04802193120325
C           -1.86279527654161       -0.17808725797292       -0.05021867835267
O           -3.05891654257746       -0.36263214927004       -0.07657810307914
N           -0.97249669715305       -1.24964733894878       -0.03701466619822
C           -1.49878997375216       -2.59812298407065       -0.06219477530491
H            3.67009526923286        1.29302627844759        1.06288382432290
H            3.96541073602033        1.11566631257809       -0.67544830863200
H            2.63240049252082        2.14341686381162       -0.09637110188587
H            4.71887852749554       -2.68152769474433        0.08583500311395
H           -1.75317884937093        3.10854389475558       -0.02125360466819
H           -2.90437295283230        2.10409235313003       -0.94949314143301
H           -2.95438168903395        2.08249732550568        0.81582780416536
H           -1.19509394757674       -3.14968594474486        0.82927569480598
H           -1.16840526446788       -3.12865522868154       -0.95738938209406
H           -2.58535067356059       -2.51232894151146       -0.07758384682264
H            1.34564629175215       -2.86527072752405       -0.01189994502279
25
 energy: 50.662938587096 xtb: 6.6.1 (8d0f1dd)
C            3.18299401390907        1.23074775112709        0.08159368422448
N            2.26383949479326        0.12104141397163        0.02791069111499
C            2.60126127980980       -1.18302991364087        0.01946321989942
N            1.40912869219653       -1.85214649648086        0.00045454452569
C            0.35365120165324       -0.99322659979545       -0.00567154851175
C            0.88153044895929        0.27954862500211        0.01625143415228
C            0.03734041057948        1.44559347419520       -0.00403197355059
O            0.38237553767482        2.60955376680977       -0.00141450327954
N           -1.32403970731967        1.09117076917426       -0.03242117224012
C           -2.30308808900410        2.16952829748673       -0.04861145851970
C           -1.87051080904796       -0.17610389026397       -0.05007623751591
O           -3.06666362415682       -0.36005396751777       -0.07613149113423
N           -0.98113051881227       -1.24720142178469       -0.03749082867873
C           -1.50314211803569       -2.59734462403351       -0.06168734866999
H            3.66041996207713        1.29041310829149        1.06212971993666
H            3.95633354801187        1.10715257827891       -0.67446875589282
H            2.63312717054911        2.15235162975459       -0.09862819238235
H            4.84659307529043       -2.76025357210332        0.08209246062285
H           -1.76158558839508        3.11178309938211       -0.02247806809969
H           -2.91139052551853        2.10624999092676       -0.95059503211439
H           -2.96188807218283        2.08513387383737        0.81538826981411
H           -1.19611468596045       -3.14585069832254        0.83030001692024
H           -1.16949038174182       -3.12514435964022       -0.95694950555982
H           -2.58966124264645       -2.51734912738194       -0.07726753829007
H            1.34609496740527       -2.85711910855998       -0.01341455179373
25
 energy: 51.523443262071 xtb: 6.6.1 (8d0f1dd)
C            3.17518814990320        1.23282321515962        0.08074085071917
N            2.24898086462444        0.13091066263458        0.03154638024644
C            2.59032501465362       -1.16807508868389        0.02518065664098
N            1.40079221457261       -1.84391123663466        0.00185511557930
C            0.34393820463064       -0.98773824013273       -0.00702813977772
C            0.86929839294937        0.28581746091940        0.01499412928870
C            0.02668698593397        1.44928019755795       -0.00448527064249
O            0.37183179302961        2.61340734457706       -0.00137477471480
N           -1.33307619114628        1.09374097052358       -0.03244474342205
C           -2.31040698362457        2.17328647546647       -0.04856416084950
C           -1.87839559473848       -0.17419394153311       -0.05040790818586
O           -3.07458044744268       -0.35728345040407       -0.07587702440323
N           -0.98959471525547       -1.24488964152084       -0.03876314721684
C           -1.50684051136722       -2.59678311852432       -0.06240509736709
H            3.65323960767111        1.28466014387569        1.06066030660966
H            3.94755128950745        1.09752178142193       -0.67455372950256
H            2.63725086470245        2.16137753436573       -0.10057758209306
H            4.97508042420274       -2.83815161381673        0.07778074653328
H           -1.76993561826918        3.11579894025392       -0.02289755972468
H           -2.91786719279831        2.11054868033191       -0.95095286118097
H           -2.96783309239257        2.08978120372286        0.81631752651596
H           -1.19401291534151       -3.14261901201692        0.82912097951644
H           -1.16907309689391       -3.12143609046710       -0.95763171542584
H           -2.59343754232266       -2.52422449180277       -0.07739129192415
H            1.34757062147674       -2.84871233040378       -0.01040182841688
25
 energy: 52.211795516064 xtb: 6.6.1 (8d0f1dd)
C            3.16909246094766        1.23628008251948        0.08121522964474
N            2.23630899148641        0.14032836296134        0.03666203618710
C            2.57988894844152       -1.15391998453413        0.03072584505200
N            1.39487462825127       -1.84232488879845        0.00248555175826
C            0.33892639193236       -0.98609961593595       -0.00923977945007
C            0.85961569640245        0.28972532499530        0.01396154198084
C            0.01959581829770        1.45230763030160       -0.00464752162006
O            0.37627183886342        2.61366825283227       -0.00165957359935
N           -1.33812757825867        1.09882823584196       -0.03246606646754
C           -2.31515572713053        2.17867428485376       -0.04876417611352
C           -1.88102646588371       -0.17119918909615       -0.05055134458991
O           -3.07709717563291       -0.35326503621846       -0.07545432144430
N           -0.99447948072902       -1.24391448435277       -0.03995920657985
C           -1.50934832733474       -2.59647591925052       -0.06273196411660
H            3.64911581705907        1.28069313977742        1.06005841246395
H            3.93894563869513        1.09192333434457       -0.67551861696503
H            2.63835970057402        2.16968064943134       -0.09846441847381
H            5.10050983247480       -2.90566995234756        0.07412986728374
H           -1.77426101531384        3.12206598324601       -0.02293270753999
H           -2.92256558933197        2.11496969735035       -0.95125814757351
H           -2.97294659878422        2.09423113093321        0.81581761802606
H           -1.19232397818803       -3.14132090647138        0.82828151774917
H           -1.16757115083908       -3.12129663538691       -0.95671407142646
H           -2.59632299618663       -2.53037696560886       -0.07730203509208
H            1.35193462516001       -2.84848374264343       -0.00863975689916
