25
 energy: -42.143514294990 gnorm: 0.005777580673 xtb: 6.6.1 (8d0f1dd)
C            3.19836701253738        1.13784519783779       -0.07543500313684
N            2.20007888746309        0.10253196295664       -0.10753541926579
C            2.42632568511651       -1.19315632693589       -0.11048077142260
N            1.25606009166261       -1.86154556383900       -0.12040582706382
C            0.22921929255885       -0.95233938901047       -0.12882249994593
C            0.83564326883029        0.31477011190115       -0.10155416203228
C            0.16853971377169        1.58489979702597        0.14341088266605
O            0.70460490105393        2.65252410122775        0.28807814484272
N           -1.22660367491645        1.35265775513970        0.26951701927735
C           -2.04032848199136        2.24241391777939        0.64421770351225
C           -1.98170496102910       -0.22725977682537       -0.72615967570792
O           -3.14845894919748       -0.26050423995928       -0.47429434253739
N           -1.06772553944460       -1.23002337951033       -0.18766023560174
C           -1.61563894042728       -2.50991142256314        0.20963403825630
H            3.45159445575510        1.38436776471086        0.95839326664124
H            4.09774086759553        0.80695989677705       -0.59266672419784
H            2.80529654179300        2.03820335175633       -0.54503928380365
H            3.39333031468044       -1.65869601034643       -0.10815488784321
H           -1.74335909255319        3.26120009969874        0.87542552709948
H           -1.52340809509032        0.21495527542515       -1.62656989136966
H           -3.08064297871000        1.95589769949233        0.72856618381908
H           -1.16973550149759       -2.84527495782328        1.14499465956132
H           -1.47514328120207       -3.26465851917707       -0.56685255688960
H           -2.68516128438143       -2.36126678614721        0.35881704166981
H            1.15154126172246       -2.86635201799130       -0.11825156862745
