25
 energy: -5.760341574034 xtb: 6.6.1 (8d0f1dd)
C            3.24505155943894        1.17616207526729        0.08209305283222
N            2.30320088010333        0.10572298501192        0.03638980413168
C            2.60136002994207       -1.23818872075570        0.03527753557386
N            1.41647840071127       -1.93561600207562        0.01247784984534
C            0.38608834319662       -1.06105814301912        0.00839874861713
C            0.91428676475146        0.22324705111677        0.02454997482637
C            0.10585745432125        1.37535556365771        0.00656965636036
O            0.49086213211259        2.55014323208192        0.02065876944377
N           -1.28667239271222        1.03694480240909       -0.05012025035736
C           -2.21579238704983        2.15452875775823       -0.03551434940442
C           -1.85615461405448       -0.20286008590041       -0.13848924487750
O           -3.05389763216584       -0.38361270342755       -0.20064739276448
N           -0.96081809282164       -1.29987013872484       -0.04709690928772
C           -1.47102632249272       -2.64931138162514       -0.03773655702054
H            3.72869004296335        1.22468140656143        1.06252446722988
H            4.01376603706228        1.03767695204529       -0.68261132859415
H            2.70491274766393        2.10445368115961       -0.09521653605726
H            3.58208325736202       -1.64867036606120        0.03718462238789
H           -1.64963442852556        3.08414063329653       -0.00145274199237
H           -2.82330438512758        2.12295997237959       -0.93590122829875
H           -2.86805618362529        2.07861054955846        0.83372056062352
H           -1.12600834298468       -3.19893075594433        0.84353289224472
H           -1.17213625948168       -3.18597535505458       -0.93845504492549
H           -2.55522502057429       -2.57085040282721       -0.01269339150569
H            1.37532018508244       -2.94007021425563        0.00309419789148
