25
 energy: 104.819271392165 xtb: 6.6.1 (8d0f1dd)
C            3.31450750920853        1.19169060790528        0.04084211642648
N            2.36170411673289        0.10584612120142        0.03952082329289
C            2.70650326629718       -1.17855377574336        0.01855071936976
N            1.60251869490745       -1.94347574426562        0.05805413806419
C            0.45869978639336       -1.10020858593657        0.11770455702239
C            1.00418907026678        0.21758737998630        0.10139660734414
C            0.25185802385144        1.47884447882993        0.10471194829349
O            0.79655054459221        2.59093722571007        0.01792889932167
N           -1.05379415365824        1.23687255431733        0.20073847745399
C           -2.02513062261926        2.27174824832724        0.20402775757373
C           -3.61973364957742       -0.84214122464694       -1.50047259776818
O           -4.49096788102549       -0.19545885241156       -1.20206980838002
N           -0.76082664836567       -1.44123199557796        0.20342430826267
C           -1.31501196730613       -2.75466088565120        0.20932179270106
H            3.80465831667196        1.26777705766284        1.01574624989614
H            4.07730945329103        1.03382036565284       -0.72181301490541
H            2.77356787343096        2.12179727401146       -0.15018583913398
H            3.71753420214651       -1.54499283798688       -0.02504641939322
H           -1.57879904552878        3.27048072206771        0.25249453491952
H           -2.64751229574244        2.19708663008577       -0.69680760545050
H           -2.68484195253819        2.12401982761203        1.06948926665995
H           -0.80323828986506       -3.46396913386388        0.87301055088495
H           -1.32591987446579       -3.16481782315085       -0.80920918944290
H           -2.35001892687318       -2.65269898922401        0.54831080736262
H            1.57159619713319       -2.94835339416141        0.04165944104944
