25
 energy: 5.445972283288 xtb: 6.6.1 (8d0f1dd)
C            3.25887843683249        1.18543264683128        0.07060445297471
N            2.29579672600781        0.12286258320221        0.04009185741759
C            2.60116292668346       -1.22805818037489        0.06949929356601
N            1.40697136763446       -1.92847955632329        0.02842496015243
C            0.34933622517082       -1.06989843610692       -0.02873341111599
C            0.89476168582913        0.20667905986995        0.00599904593204
C            0.06267031725195        1.33439071939715       -0.02548355832134
O            0.46502872800243        2.50228319751146        0.03971518076117
N           -1.35400659476386        0.99180683004109       -0.12562693470221
C           -2.20595466022629        2.16397459116620        0.00377261788288
C           -1.96926361500328       -0.22300509944665       -0.42048603115362
O           -3.15489076650130       -0.38345118554330       -0.58816398258747
N           -1.02048661058295       -1.30370876163710       -0.12842285013287
C           -1.46791482016154       -2.66835501784026        0.01329250900657
H            3.75534032844888        1.24148461625750        1.04676288702146
H            4.03191443799872        1.03155330764562       -0.69371369328327
H            2.72794828091404        2.11734854126895       -0.11096115966199
H            3.59656439026231       -1.62303140110071        0.02961629893095
H           -1.60737917988141        3.07556498777212        0.06499893525817
H           -2.82885286649213        2.20908002415407       -0.87613509821686
H           -2.83416380144447        2.07899110699368        0.88904086355862
H           -0.99189733660663       -3.19858982877132        0.85446235462365
H           -1.27705962447621       -3.22776475489994       -0.89909516167487
H           -2.53969921794815       -2.61896255237543        0.17516290701943
H            1.41095313079437       -2.93448627485962        0.03584077393230
