25
 energy: 104.905196702506 xtb: 6.6.1 (8d0f1dd)
C            3.30637818559669        1.18778672784710        0.03833623370931
N            2.34631937848827        0.10787375497005        0.03893995413667
C            2.69270631502907       -1.17428378971195        0.01832553715328
N            1.59243526072519       -1.94407715275038        0.05312289349063
C            0.44429586167803       -1.10356326749514        0.12020711145487
C            0.98896966319303        0.21607240318138        0.11118377179384
C            0.22843474610722        1.47001201926385        0.10942665158030
O            0.78085120949028        2.57879092348613        0.02878965944907
N           -1.08067405872012        1.22969450244325        0.17322636383615
C           -2.03744035193933        2.27669730740028        0.20360400986478
C           -3.48247706503667       -0.76891174931561       -1.56198795240009
O           -4.39500594583870       -0.17522896356020       -1.28136675779737
N           -0.77075292013687       -1.44843594583849        0.23923185862527
C           -1.32040351630784       -2.76214320836549        0.22021110170770
H            3.80574288529154        1.26237504298716        1.00782944605752
H            4.06826934625078        1.02660001490681       -0.72767105367453
H            2.77006065788083        2.11969262449411       -0.15046183041046
H            3.70883302927216       -1.52831573393358       -0.01930167392712
H           -1.56739112949640        3.26035238344570        0.26546991639492
H           -2.67129424530383        2.22372067199369       -0.69251066260136
H           -2.68244597082315        2.11536851305624        1.07605514338943
H           -0.76980794114406       -3.46457561085435        0.85563250425570
H           -1.34142961286717       -3.15318514102028       -0.80269930361003
H           -2.34321589611023       -2.66671631506465        0.59741609792117
H            1.57803153187070       -2.95127080785261        0.04040745102537
