25
 energy: 20.161921229451 xtb: 6.6.1 (8d0f1dd)
C            3.26345321661875        1.18437629638801        0.07665154491167
N            2.28021453896106        0.12992099071215        0.05956745799062
C            2.59464686164696       -1.21224252005552        0.09411418616863
N            1.41269301550054       -1.93180444423372        0.02458155955911
C            0.33952294397499       -1.08221843467219       -0.03813674447604
C            0.88352424935763        0.19455186541882       -0.01108599138905
C            0.03950955990344        1.32890930446187       -0.04692031814356
O            0.47716897011226        2.48077245566994        0.05524562831640
N           -1.37599975444419        0.98921906137805       -0.17173489638954
C           -2.19788779881766        2.17601361566259        0.02948220723233
C           -2.02709259257820       -0.21761320868672       -0.59564654047736
O           -3.19914907282525       -0.37223760672788       -0.83469794405875
N           -1.02453728544298       -1.31994419472298       -0.12845210789882
C           -1.45856561633614       -2.68425516315549        0.05074639439240
H            3.77404788537900        1.25027506706145        1.04471697872527
H            4.03744661873794        1.01139396396675       -0.68128171933473
H            2.74795283644260        2.12330208251192       -0.11718264001390
H            3.59459469118687       -1.59039312385765        0.03467877215037
H           -1.58156430441499        3.07571915215437        0.10917616875291
H           -2.83445876606252        2.26866562939631       -0.83413533507735
H           -2.81008799501714        2.07928317508721        0.92468123586328
H           -0.90475017385999       -3.20321069712389        0.85456058945892
H           -1.34655721030099       -3.25521527031104       -0.86923097496620
H           -2.51613600062607       -2.65045620130567        0.29963580587831
H            1.44443695513183       -2.93635614471194        0.04837752325807
