25
 energy: 104.610794516037 xtb: 6.6.1 (8d0f1dd)
C            3.32068057834540        1.19372819131707        0.04294515619412
N            2.37287592482926        0.10493544277883        0.04342246664985
C            2.71627590347806       -1.17965695230268        0.02287688594865
N            1.60950356630067       -1.94502977519955        0.06101363501575
C            0.46935661658228       -1.09974499184847        0.10879111592829
C            1.01547801758808        0.21979476620255        0.09288890667241
C            0.26672818388416        1.48621215583666        0.09846751494956
O            0.81516554161583        2.59644858052826        0.01590570513412
N           -1.03079545194615        1.24057934022969        0.20438675931318
C           -2.01533186931333        2.26271231124748        0.19189163741950
C           -3.71799879374677       -0.91489406321905       -1.41210391970399
O           -4.51166657177636       -0.15063402520249       -1.17015886679918
N           -0.75740841076578       -1.42539783916942        0.16100007676918
C           -1.31098505744097       -2.73637446459591        0.19506476651940
H            3.81863616811579        1.26817329845310        1.01192771714111
H            4.07586211222211        1.03105472534307       -0.72643844344403
H            2.77717103529890        2.12303891252334       -0.14527087519774
H            3.72215641107261       -1.55108145936192       -0.01637790625257
H           -1.59383905273616        3.27753726303068        0.23926823146052
H           -2.62956260411174        2.16638955360132       -0.71301875668524
H           -2.68129417039272        2.12039696882361        1.05151663123125
H           -0.80292830936628       -3.42471932149829        0.87936876730269
H           -1.29680784898034       -3.17107201853101       -0.80780179950773
H           -2.35455054375944       -2.62066428592536        0.49970283595562
H            1.58197864248126       -2.94908538130156        0.04682420474274
