  25
        -42.01864136
 C          3.6107790294        0.8538165825        0.0754952215
 N          2.5175198248       -0.0697573677       -0.0338973142
 C          2.6054959360       -1.3914020086       -0.1433299681
 N          1.3883555395       -1.9453387871       -0.1501964967
 C          0.4311685217       -0.9631436104       -0.0568337092
 C          1.1512352741        0.2874456172        0.0316260198
 C          0.6404779697        1.5007444583        0.2072760597
 O          0.2246902388        2.5835377297        0.3278512076
 N         -2.2725771013        0.8031422941       -0.6009969292
 C         -2.6838602552        2.1348917586       -0.2434914251
 C         -1.7262389521       -0.0903888570        0.3199095267
 O         -3.0583760263       -0.2323004874        0.0638876717
 N         -0.8838048209       -1.1432134804        0.0431812736
 C         -1.4094993883       -2.4952043988        0.1665021295
 H          3.6947704360        1.2322998342        1.0980829261
 H          4.5375384847        0.3490784379       -0.1916128803
 H          3.4557763438        1.7007858800       -0.5940372092
 H          3.5245793585       -1.9373601046       -0.2326607690
 H         -1.8967175571        2.8255593931       -0.5361103705
 H         -3.5786998145        2.3500652952       -0.8276138474
 H         -2.9096145953        2.2477174733        0.8194840025
 H         -0.9568775330       -3.0208826923        1.0081991762
 H         -1.2318145246       -3.0400360697       -0.7609038033
 H         -2.4846567179       -2.4267354365        0.3234741856
 H          1.1956483367       -2.9290888792       -0.2705609375
