25
 energy: 6.110796643629 xtb: 6.6.1 (8d0f1dd)
C            3.26222505166107        1.17268674845357        0.09299434646782
N            2.29270163938856        0.11334313893417        0.05555213588757
C            2.59316840448622       -1.24069485694774        0.07667557132048
N            1.39716647103258       -1.93630416285062        0.03038218975508
C            0.34078937536415       -1.06952060581514       -0.01037300211019
C            0.88901336069808        0.20326804056179        0.02148712070776
C            0.05392538314904        1.32851740582993       -0.05580441635917
O            0.45348944951534        2.49633863865707       -0.05138481342834
N           -1.39648520707125        1.02260873367291       -0.12312771659145
C           -2.22277219325249        2.19644369527673        0.02342227022113
C           -2.01539891485054       -0.17555924388958       -0.35301573358133
O           -3.18918252222206       -0.40547832627653       -0.47583528442944
N           -1.03218088759579       -1.27378301156710       -0.10468803001882
C           -1.44437748903193       -2.66049049411682       -0.03912288076571
H            3.76279227413147        1.21875543157607        1.06677114555981
H            4.03577472562755        1.02959898282557       -0.67166565270664
H            2.73731435344205        2.10986042262390       -0.08069369459774
H            3.58881904275081       -1.64051427465958        0.05202764147510
H           -1.62722801394809        3.09013329128177       -0.20536024215575
H           -3.03741044320372        2.04621990070326       -0.66969142314971
H           -2.65688450771017        2.26099162332650        1.02685444089435
H           -1.06637425656162       -3.17728641675283        0.85440883330931
H           -1.10348792457076       -3.20521857419892       -0.92522175507002
H           -2.52832391893076       -2.65492625670624       -0.01464674201664
H            1.39950132571783       -2.94313970241123        0.04151875978912
