25
 energy: 38.979893898447 xtb: 6.6.1 (8d0f1dd)
C            3.27102575891853        1.15653409434329        0.11064516088615
N            2.28042500658916        0.10635111279512        0.07973871657044
C            2.58650830310108       -1.22425570705366        0.10683996367570
N            1.42161943112340       -1.94878478056131        0.02711957373198
C            0.33627393142381       -1.10425966520348       -0.02275621917203
C            0.88138884510282        0.18446474557912        0.02197972956479
C            0.05779857031214        1.29133433419615       -0.07430102193309
O            0.42680225022208        2.46817284727793       -0.05814059600067
N           -1.51063289268231        1.02944985594963       -0.19665653553208
C           -2.22647716208885        2.24886827621568        0.08442165708979
C           -2.23528198362699       -0.01741086617848       -0.50970448814229
O           -3.32114364870811       -0.40584932814268       -0.76211929055010
N           -1.00846437833072       -1.30516448683649       -0.09594825293959
C           -1.40132906116511       -2.68737250122483       -0.01557098951116
H            3.78877098821693        1.19713465291869        1.07747802069048
H            4.03815807161470        0.99664792372620       -0.65723231483587
H            2.76787079812290        2.10797070178772       -0.06459077860918
H            3.58715773427396       -1.60255861088141        0.07253914906171
H           -1.67991194674256        3.10484150753060       -0.32493614525037
H           -3.16159272687641        2.06835664723076       -0.41884344656678
H           -2.46158507808161        2.38628458317780        1.15094321816961
H           -0.98764904835639       -3.17985965029236        0.87743146777410
H           -1.06559415455061       -3.23855572878026       -0.90121773611050
H           -2.48630638823472       -2.72106180244000        0.03095437655913
H            1.44977165273780       -2.95280675202268        0.05506332446317
