25
 energy: 102.936710396570 xtb: 6.6.1 (8d0f1dd)
C            3.32917277856688        1.16181702093489        0.08685876258433
N            2.37983498299336        0.07606465802880        0.05996730154853
C            2.71810326709661       -1.20672513095190        0.04615457105601
N            1.60623056868972       -1.96569934874639        0.05309819867956
C            0.46889438516458       -1.11971600242528        0.06600055067128
C            1.01968077999494        0.19513107683685        0.07716829474757
C            0.26532263081781        1.45845254447552        0.06305465532907
O            0.82286157533470        2.56263177340341       -0.05253040948441
N           -1.02734624274032        1.24578130072228        0.21912864488550
C           -2.02440423253414        2.23776156303551        0.17321825101328
C           -4.23740685661451        0.38162724846549       -1.08385334602224
O           -4.08145024213532       -0.73536776816327       -0.99519955792645
N           -0.76603113562432       -1.43064208673512        0.04940941064479
C           -1.28189366295283       -2.75882292612810        0.05255130289656
H            3.82468015316810        1.20343915968691        1.05826592845459
H            4.08108700307667        1.02207320227143       -0.68951875884811
H            2.78612238601128        2.09587949664728       -0.07741781901063
H            3.72259714596916       -1.57934247188208        0.03042511062785
H           -1.71742909046694        3.14840074122819       -0.35651626409805
H           -2.90375150254606        1.79564684981554       -0.32757642751008
H           -2.33469771055804        2.49729205919825        1.19317990301341
H           -0.93800652932618       -3.35146303256011        0.90933867236421
H           -1.02390719716222       -3.29825277255391       -0.86741348755538
H           -2.36793559938808       -2.67558118303859        0.10396235019338
H            1.59188665013727       -2.97135718282178        0.03527807394065
