25
 energy: 58.672415355452 xtb: 6.6.1 (8d0f1dd)
C            3.27312828507007        1.15165234115065        0.11749479855965
N            2.28360453192357        0.10173386939977        0.08680162810891
C            2.59812457783812       -1.21788775975481        0.11426708082571
N            1.44588841392614       -1.95717884712631        0.03104551483661
C            0.34650943772203       -1.12467901985725       -0.01078274706915
C            0.88803735174486        0.17631813058422        0.03472906173402
C            0.09684245314863        1.28948419953469       -0.05321163303404
O            0.43759851267990        2.46833289561591       -0.05662978591575
N           -1.56314332773334        1.02375279170171       -0.16902236799176
C           -2.22421981923719        2.27280874946044        0.11312988074899
C           -2.36253506516295        0.10203415327789       -0.56463494829812
O           -3.37537477938334       -0.39965551370642       -0.86295883168190
N           -0.96727574723836       -1.33341595814769       -0.07158379837132
C           -1.38065788628004       -2.70317348149331       -0.00398658237771
H            3.79706111047105        1.18881146002201        1.08095533899879
H            4.03604355134432        0.98956129623182       -0.65275596902335
H            2.77801244067057        2.10768992477202       -0.05809749167797
H            3.59760720369369       -1.58844547616243        0.07404200620163
H           -1.69836506708031        3.10481765450175       -0.36401304766469
H           -3.19196625790685        2.09083068595216       -0.32496347664180
H           -2.39384007057968        2.43482327866753        1.18480765380807
H           -0.96190985616158       -3.19216139748587        0.88579857169094
H           -1.05428173801185       -3.25169583859457       -0.89399989488561
H           -2.46860179370131       -2.73738444403267        0.04855737755565
H            1.47367705621147       -2.95916656003106        0.05582567024802
