25
 energy: 75.520336366330 xtb: 6.6.1 (8d0f1dd)
C            3.27859674166672        1.14814958104507        0.12132893386626
N            2.29850572618945        0.09663820530572        0.07862137178738
C            2.61888214874378       -1.21319648300201        0.10963899818059
N            1.48198922287394       -1.96703564783495        0.03505804625916
C            0.36099342163769       -1.14417160009952        0.00960485706449
C            0.90207313031884        0.17044292400230        0.04116110455169
C            0.15058255278219        1.29702351928354       -0.01060297784434
O            0.46009131264535        2.47204208904857       -0.06215144344102
N           -1.62371144057833        1.00957011950911       -0.14815338701956
C           -2.22359674988963        2.29879699214957        0.13550769407961
C           -2.51767015759357        0.24727932727147       -0.62214287002443
O           -3.42387492391926       -0.39550872317998       -0.96895388746296
N           -0.91464511301810       -1.36372930764991       -0.03620781284786
C           -1.35683877889136       -2.72055959039358        0.00676065759894
H            3.79974258956883        1.18081638622426        1.08613959722155
H            4.03667709459248        0.98385834789743       -0.65116374301016
H            2.78876541499088        2.10683312912093       -0.05435385476615
H            3.61934651014788       -1.58088491174301        0.08090453128189
H           -1.72104291516858        3.10160181280992       -0.40905858141853
H           -3.22626921220743        2.11310699072883       -0.22838855358425
H           -2.31687790816442        2.48159612656903        1.20648455202069
H           -0.93566085464163       -3.20654130513880        0.89228404508168
H           -1.04177438118514       -3.26301038998767       -0.88882374038145
H           -2.44848117880771       -2.74979622644478        0.06524906191454
H            1.50122178646256       -2.96678553086275        0.05435100085737
