25
 energy: -42.174458675857 gnorm: 0.007580323161 xtb: 6.6.1 (8d0f1dd)
C            3.30432837959169        1.11443372057071        0.01177070969428
N            2.31868197380842        0.06800655535095        0.00705301348983
C            2.54958669666836       -1.25098809651996        0.02342418293729
N            1.36699986854347       -1.92285732646885        0.02291463036677
C            0.35932372241008       -1.00427479604682        0.00928134995510
C            0.94868820226305        0.26215121219188       -0.00349604601270
C            0.20564872753488        1.46694985770011       -0.04647446842225
O            0.60692567781156        2.61008964922445       -0.07167446424208
N           -1.24434901385909        1.20380277564305       -0.08404683619490
C           -2.01369167800362        2.29978193542538       -0.18239760053274
C           -1.75692760781945       -0.04702934258813        0.02609344371837
O           -3.08538666035000       -0.26272752241771        0.07056021191856
N           -0.97783716945237       -1.18237045057396        0.03123724470128
C           -1.56055192421440       -2.50874085442047        0.05352419428588
H            3.88587351818559        1.08525464863154        0.93512078260698
H            3.98277955427381        1.00239423934014       -0.83458797391506
H            2.79142240004214        2.07277796893918       -0.05848177997347
H            3.51344946452559       -1.71487457341423        0.03142887027043
H           -1.50745972233203        3.24309469957039       -0.20440402645655
H           -3.07444592069386        2.23433413260433       -0.32231729864115
H           -3.57612604264357        0.50130916736417        0.40042236847875
H           -1.19668387492568       -3.06214252983568        0.92046353895281
H           -1.30495583456938       -3.04524620508267       -0.86141054312558
H           -2.64116908472808       -2.41890689661229        0.11693068586881
H            1.26630786203311       -2.92598342697564        0.04023742817074
