25
 energy: -42.502631252634 xtb: 6.6.1 (8d0f1dd)
C            2.95652538408502        1.79309096004835        0.35202404491274
N            2.39373465214108       -0.07135842957037       -0.18415282640423
C            2.66478827516111       -1.34031779458967        0.13180305627853
N            1.51338879721605       -2.11957822842803        0.18131661550169
C            0.45566790346494       -1.29995825371912       -0.04106070215381
C            1.02396373183506       -0.04179600431654       -0.22196983354314
C            0.25783687183275        1.12013126399963       -0.41749728179319
O            0.63924837693157        2.21094676550657       -0.80051147834859
N           -1.09523739851944        0.89485272604261       -0.11503728657475
C           -1.89204904800308        2.11107388150815        0.00722972968516
C           -1.72107528788888       -0.30797693934151       -0.04943520723005
O           -2.92474654617291       -0.37619114733231        0.06691790104299
N           -0.91365229188541       -1.47231375902682       -0.06384102584672
C           -1.70947453955999       -2.69394150966569       -0.08303389184321
H            3.79860420947747        1.97850653573039        0.98170497626325
H            3.23152224169149        2.20458839968761       -0.65574613729514
H            2.02514465166288        2.21079785173882        0.62368062005879
H            3.62457378324160       -1.82762337399921        0.18811304063404
H           -1.19652496025200        2.92886707351521       -0.09171617652719
H           -2.64228117945019        2.16602479479689       -0.74584645843062
H           -2.26505248498601        2.20607310455447        1.01735060866220
H           -1.59508049444570       -3.32870652536291        0.79743193598261
H           -1.49843350119580       -3.27998790877899       -0.97884308295218
H           -2.75213335022767       -2.32536233966451       -0.08249076097246
H            1.55637667349897       -3.12508449038435        0.22090262279278
