25
 energy: 54.847841029236 xtb: 6.6.1 (8d0f1dd)
C            3.44938793437114        0.93925442564123        0.16002827002627
N            2.50610286446195       -0.13930768990088        0.03227118525271
C            2.82308258370057       -1.42047989395280       -0.10182152556781
N            1.68596189366231       -2.16288926401583       -0.12955584060599
C            0.61597206879852       -1.29830753887219       -0.00046241015960
C            1.15269099129841       -0.02183317794581        0.09315852600689
C            0.26383125023279        1.15701224037469        0.23401064118837
O            0.73603944583677        2.28023592721441        0.30863805007708
N           -1.03612944695921        0.84143068204933        0.29084746673530
C           -3.48799632335912        3.41882656479781       -0.41787978171238
C           -1.61241639898607       -0.31816981879713        0.21751868210794
O           -2.76965748036966       -0.62906325788799        0.26052058132111
N           -0.67911363453011       -1.54318572532769        0.02990186582836
C           -1.22313178153057       -2.86703746789495        0.00413142155581
H            3.97566441811757        0.87452816995613        1.10516601269691
H            4.17664608977900        0.89695014498523       -0.65035508147270
H            2.91461710240951        1.88795156394948        0.14278089381972
H            3.80950318718690       -1.81431165093190       -0.21607796195901
H           -2.70373222979783        4.13941017933453       -0.39508395586627
H           -3.82645368138716        3.02767196996621       -1.35015068635112
H           -3.97409085600049        3.13149675769758        0.48436706340125
H           -0.83961156270368       -3.45168971907435        0.84588528304080
H           -0.96093980120378       -3.35849352285148       -0.93584579756190
H           -2.30836868624357       -2.78829197607508        0.09704320626762
H            1.65090255403510       -3.16722672539406       -0.22779548951494
