25
 energy: -5.548269750309 xtb: 6.6.1 (8d0f1dd)
C            3.26185773492859        1.16295054608713        0.09567718145809
N            2.31201206146075        0.10006701785080        0.03708525040266
C            2.60815240218088       -1.24750505761252        0.02485997417957
N            1.42315786344612       -1.94570973681511       -0.01170010594698
C            0.40615975294562       -1.06159611816536       -0.00121326048097
C            0.91960771944747        0.22788810756917        0.03562158949972
C            0.10346081387019        1.38609951113845        0.01804831555327
O            0.49016580351171        2.55924786944938        0.03166280862424
N           -1.30117549421569        1.06755787813967       -0.01768763121094
C           -2.26842649918406        2.18056399905581       -0.07543992302012
C           -1.82692042768799       -0.19279269040359       -0.02220344683953
O           -3.02256102120770       -0.40521652754940       -0.03778469138360
N           -0.93510143274470       -1.29515190282919       -0.01251792622264
C           -1.45262231208887       -2.64584565771125       -0.05307227008753
H            3.75625713173589        1.19397465997545        1.07306127067598
H            4.02485017396328        1.03332418367564       -0.67591403530441
H            2.72384987241334        2.09318010283336       -0.06202842506904
H            3.58505563903332       -1.66913585755407        0.02542793040021
H           -1.72187592421818        3.12312731366909       -0.05813632475365
H           -2.87398453392780        2.13494407732546       -0.97926144784571
H           -2.93343820736053        2.13286436060351        0.78710804288240
H           -1.14075791612568       -3.20871857583981        0.83051417027288
H           -1.11989445243525       -3.17236886366730       -0.95257064245932
H           -2.53845589574874       -2.57214244212030       -0.06454228346110
H            1.36153592771343       -2.95048430375906       -0.04065313373776
