25
 energy: 1.155839172899 xtb: 6.6.1 (8d0f1dd)
C            3.29909033129014        1.13442841403697        0.11246262933766
N            2.32659820587367        0.08969534008734        0.03411051681408
C            2.61896444888533       -1.26720695484405       -0.00153722349947
N            1.42403845911167       -1.95463654948845       -0.05482129793985
C            0.41643298007299       -1.06216663149907        0.01150293747960
C            0.91830327199853        0.23044746619285        0.07792910073351
C            0.07772158439344        1.38563951500902        0.07163815748049
O            0.47179988901697        2.55400779566391        0.11911195130078
N           -1.36695115438981        1.10747812385944        0.00697363675444
C           -2.36609716436230        2.24666028762087       -0.14351657767360
C           -1.84669427879425       -0.17942330422009        0.03128784252896
O           -3.03206134576451       -0.44222149451180        0.04153848211387
N           -0.92934880797559       -1.27936233670836        0.03373496456218
C           -1.41463363329066       -2.64753474721241       -0.03683208625496
H            3.82055166815240        1.12736375971253        1.07925065340171
H            4.05075547230511        1.01847543180222       -0.67503726026615
H            2.77839576084762        2.07833997615805       -0.00556068013497
H            3.59268054930033       -1.70731619980989       -0.03451414010956
H           -1.82986224246203        3.19735904137510       -0.14211410193368
H           -2.96183708719094        2.20347000263035       -1.05810873594772
H           -3.04415265734071        2.24145063529086        0.71314282611178
H           -1.07745992027163       -3.22282272018166        0.83074319795057
H           -1.06961630714075       -3.15903318145705       -0.94368172367236
H           -2.50203565960279       -2.61104322357534       -0.04173585231197
H            1.35385554012910       -2.95927664728300       -0.10865849312304
