25
 energy: 54.280776332734 xtb: 6.6.1 (8d0f1dd)
C            3.44603670620382        0.94506282375006        0.13457294095722
N            2.53147758299584       -0.16375079196312        0.04470500057436
C            2.84403177376751       -1.44339913361264       -0.10017041250147
N            1.70628305342177       -2.18200440987230       -0.11424390534109
C            0.63989318169735       -1.32616582566409        0.02847468689975
C            1.17415271652710       -0.04848845236486        0.13024420970299
C            0.26985654284210        1.12952438232447        0.23226504189725
O            0.71564500958123        2.26666188732112        0.26436802568147
N           -1.02223261121685        0.79665233128897        0.26462779312403
C           -3.64747915869485        3.66359188473950       -0.37203478702323
C           -1.57726285930175       -0.38165308407367        0.20465397952616
O           -2.74779248651081       -0.65765126095059        0.23631547293758
N           -0.65640622552713       -1.58737379830440        0.06456003435954
C           -1.22142956394303       -2.90778262114118       -0.02456441694588
H            3.96273109326501        0.93125278081682        1.09562555129789
H            4.18415587520309        0.89689338297116       -0.66546913365381
H            2.86388364901198        1.86642966693674        0.05983741671881
H            3.83136469880086       -1.84296611263335       -0.19292795614404
H           -2.80059926891163        4.31331691316977       -0.33901549868848
H           -3.97998832605621        3.26427227143395       -1.30516964698931
H           -4.10382320441295        3.33708034781592        0.53616786726822
H           -0.91343682970256       -3.52401500550603        0.82357987623428
H           -0.94158571600715       -3.39430155220636       -0.96184608088509
H           -2.30543174966201       -2.77995354895849        0.00413158329773
H            1.66017042160176       -3.18220428657312       -0.22165373011038
