25
 energy: 6.827956417207 xtb: 6.6.1 (8d0f1dd)
C            3.31526935053945        1.11750085728505        0.12009515487608
N            2.33207444316601        0.08108520627627        0.02712475535575
C            2.62217034254589       -1.27779972684818       -0.01901810071893
N            1.42365400799236       -1.95916806418743       -0.08011454981561
C            0.41889257652310       -1.06305278788236       -0.00596378859325
C            0.91992068477932        0.22864076381570        0.06939730136741
C            0.06633652898053        1.38601545226543        0.09090338139984
O            0.46454652644149        2.55083475850649        0.16317507934172
N           -1.39958801770919        1.12883897681518        0.00995036794260
C           -2.41738528064485        2.28334519332476       -0.17765150236504
C           -1.85676404296071       -0.17086180247484        0.05310283185265
O           -3.03569946163512       -0.45848267529747        0.08351407577322
N           -0.92662792070691       -1.27133303714807        0.05262290065383
C           -1.39670529857293       -2.64774021780086       -0.02834734616081
H            3.84835932609923        1.08941354986419        1.08173787940515
H            4.06164318692708        1.00691993031361       -0.67407718709607
H            2.80600171787958        2.06962624467443        0.02239944324355
H            3.59427434489094       -1.72246762813226       -0.07041035253650
H           -1.88745405394578        3.23847780035452       -0.18478552777173
H           -3.00583832637123        2.23225163778644       -1.09919920847223
H           -3.09943156254823        2.29417646603367        0.67555936791102
H           -1.04521715853388       -3.22819795666262        0.83094994150413
H           -1.04582923317961       -3.14942463815469       -0.93968414981442
H           -2.48461288969941       -2.63079142684236       -0.02920024885815
H            1.35422799623114       -2.96353634508597       -0.14316759562115
