25
 energy: -3.025660315866 xtb: 6.6.1 (8d0f1dd)
C            3.28168047906443        1.14969760931610        0.10432806448277
N            2.32027158817366        0.09647637994621        0.03713519563515
C            2.61475963655647       -1.25685178894410        0.01439218610801
N            1.42441249013527       -1.95044255558731       -0.03118542194284
C            0.41249534649061       -1.06155330121585        0.00882298939985
C            0.91947300746582        0.22976028556120        0.05718120082433
C            0.09119001859174        1.38523695596556        0.04357982362255
O            0.48122293374000        2.55639095769443        0.07405230708914
N           -1.33350578439330        1.08681139276333       -0.00585598788466
C           -2.31649217475618        2.21280173616866       -0.10765180349566
C           -1.83607990040787       -0.18691829564200        0.00373450302829
O           -3.02693721527605       -0.42495036069832        0.00226506938566
N           -0.93146934237700       -1.28747611339725        0.01153944126197
C           -1.43389072298449       -2.64666556154046       -0.04516047402870
H            3.79080631188394        1.16311668475078        1.07620161071485
H            4.03865733027824        1.02670632473085       -0.67573032070608
H            2.75097675017147        2.08583141120697       -0.03410789688561
H            3.59031158458726       -1.68908904657125       -0.00198593111126
H           -1.77868528898885        3.16187711972126       -0.09836012593606
H           -2.91840615639607        2.16891201479050       -1.01510275845911
H           -2.98827383747030        2.18718009848138        0.75222912472290
H           -1.11114123850894       -3.21802447187191        0.82977512275072
H           -1.09536229295035       -3.16519940407304       -0.94885564883077
H           -2.52054317974827       -2.58960565651724       -0.05397210378602
H            1.35708992158671       -2.95523720103035       -0.07364592558478
