72
 energy: 83.411790791918 xtb: 6.6.1 (8d0f1dd)
N           -1.98421928255806        3.30812755836040        2.33427004358873
C           -1.84452552003025        2.30472157053845        1.41678502169612
C           -2.51195427249890        2.47624728231070        0.27416044234974
C           -4.41001798210218        0.64967804065395        1.47865617888707
C           -5.02035014769304        0.39266161271420        0.24110075869309
C           -4.95035139699601       -0.83934473906552       -0.39975887965366
O           -5.54193289857994       -1.14146765766829       -1.60025825162201
C           -6.41207306228579       -0.21680617041439       -2.19512995189592
C           -4.22369398893035       -1.89656264421567        0.18341972448130
O           -4.25047472048349       -3.10331300247516       -0.45977632265972
C           -3.74008805484262       -4.23652141706593        0.21462312012392
C           -3.64590058267316       -1.67909925162114        1.42536802145336
C           -3.70241782695641       -0.41594697654034        2.02608287493188
C           -2.37026610866390        1.80207288916109       -1.02967617474546
C           -1.57684143609068        0.52364941305396       -1.05588610403967
C           -0.22259665245499        0.69837410333377       -0.51199525891412
N            0.56094847993566       -0.36840741993099       -0.13290322288069
C            1.97989923325210       -0.23804182970650        0.05907057678545
C            2.85574257291751       -0.70873069974517       -1.13437690597210
C            4.30866221235126       -0.53981094094088       -0.79640313687050
C            4.95497838581766        0.66159819284401       -1.02130506633082
C            6.28299380955509        0.83046890277313       -0.66053928023631
C            6.99218375865805       -0.19611389975554       -0.05993581288337
O            8.29857359469747       -0.13826198134748        0.33972947752816
C            9.02190368385653        1.04683073925906        0.12032311172288
C            6.34510167704396       -1.42835937225536        0.18309183897744
O            7.10296084487874       -2.38810429297589        0.79333900740251
C            6.51170332328808       -3.63686720352412        1.04411053849710
C            5.02385498160920       -1.57799724130691       -0.19534231152817
C           -0.01692375412376       -1.67644035490072       -0.16024913533858
C           -3.52927446361634        3.57526478796717        0.34904397861215
C           -3.69081401252313        3.93877532268083        1.78058423088046
C           -3.02101397064535        4.78907845604845       -0.37009290318687
H           -5.50132975543475        1.19555895412695       -0.31404033415169
H           -7.25732121600286        0.03118789313139       -1.53403002843687
H           -6.81190123399481       -0.68413572056807       -3.09167073380197
H           -5.84352203200761        0.67653750344330       -2.48574834629999
H           -4.13398581329615       -4.42478300746014        1.20172380466714
H           -3.92581709076378       -5.08438327196097       -0.44393785612528
H           -2.67734923429843       -4.16049086343345        0.35430632801641
H           -3.09056525900891       -2.50885855931217        1.87010698985661
H           -3.17039488210018       -0.27244239756887        2.94428844549022
H           -3.31053992508616        1.68659280721134       -1.56113705193885
H           -1.79552820738059        2.52707206481774       -1.59163810701404
H           -2.09414776330693       -0.22618369482408       -0.46399988529626
H           -1.61284171882455        0.17059635855431       -2.09330928115899
H           -1.21211815863367        1.42778962962460        1.62651205424495
H            0.28028895176670        1.62517470914738       -0.67314934910814
H            2.26597681918204       -0.81362318040418        0.94761297256300
H            2.21045044901198        0.81011542539467        0.24739747984289
H            2.60670818293858       -0.11445906119957       -2.01669560506586
H            2.63733016026832       -1.75592505586989       -1.34789028530282
H            4.43069380290619        1.47994992333008       -1.49116731952238
H            6.75942709144940        1.77737932111893       -0.85863402650081
H            8.58156214169961        1.89616860449298        0.65399745677185
H            9.08527862592984        1.28232491567198       -0.94584008776201
H           10.02712171528484        0.87011547623009        0.51034472141804
H            7.29492808510214       -4.24554172579033        1.49520834572197
H            5.66173538797918       -3.55284596836230        1.72999099476894
H            6.17660910652250       -4.11803006093220        0.11991974733512
H            4.51745270997615       -2.51438772141873       -0.02546949830655
H           -0.31435691432775       -2.04603954210567       -1.15145415603127
H           -0.89210089093329       -1.65779840905611        0.49726922924441
H            0.68967926575496       -2.37814814512827        0.25167838785919
H           -4.45062296644170        3.33810475190223       -0.17902864903245
H           -4.03510559138422        4.96595215220855        1.80716480555177
H           -3.68453806775636        3.60187897631847        2.79727213653083
H           -4.55720110253457        1.78023154519068        1.89634896772207
H           -2.04530311068035        5.00174217086690        0.02831729888534
H           -3.00925643766247        4.58166315734218       -1.42215398152604
H           -3.69253595980638        5.61907793659135       -0.17237179332312
H           -1.91674017118284        2.96487159473475        3.30711022828064
