72
 energy: -6.118639014223 xtb: 6.6.1 (8d0f1dd)
N           -1.53095743155162        2.81445775571727        2.25841152504497
C           -1.57398550782251        2.15607485591837        1.18936014182716
C           -2.76706616936033        2.06984830924298        0.28013867300080
C           -3.36712736561238        0.67354498241308        0.38189805553374
C           -4.34412335493303        0.27171674205273       -0.53003065674053
C           -4.86127517952928       -1.00773841515818       -0.52360733683643
O           -5.81464423394953       -1.47942281402522       -1.37920735642930
C           -6.39668813812586       -0.58347875003487       -2.28893353022325
C           -4.39818007847759       -1.94124557796990        0.42574220061650
O           -4.96729746170019       -3.17710402430121        0.35513410750859
C           -4.60872159958359       -4.11628528059386        1.33475899472329
C           -3.44592088793010       -1.54247394414586        1.34186335828395
C           -2.93769385719467       -0.24952108233907        1.31605300191934
C           -2.20940300675091        2.27344385867090       -1.16002314075747
C           -1.26987195536155        1.16875317416634       -1.66793500258405
C            0.00572143161164        1.12123632484191       -0.90240026416333
N            0.63348019449320       -0.06018128002860       -0.54964876900785
C            2.00666887516616       -0.04941066413278       -0.15621890301855
C            2.93910543507323       -0.55354918941322       -1.27957901067787
C            4.36502531237121       -0.44045542871158       -0.84450597691491
C            5.07907204344155        0.72499407626977       -1.04620166516817
C            6.38857508408241        0.84074830852499       -0.60367903314617
C            7.00301062678059       -0.20900189143863        0.05628247754405
O            8.28282125121256       -0.20899183476498        0.52630006600360
C            9.06934067365544        0.93474783695778        0.31229170767943
C            6.27863209793157       -1.40174895898724        0.27848807702086
O            6.96209931591796       -2.38427608577967        0.93098640660363
C            6.32456958823180       -3.61529195266678        1.14964127501141
C            4.97488402109964       -1.49736262625320       -0.16873663780512
C           -0.04703695521077       -1.32326295579956       -0.60273220565492
C           -3.87772425595191        3.11224725661496        0.56611532047583
C           -4.50394763536311        2.89060438920586        1.93530875567403
C           -3.38660471280164        4.55057461628121        0.49332809448021
H           -4.70206338880287        0.97800056135062       -1.25731213760737
H           -6.86364731206519        0.26372168786084       -1.77504870035715
H           -7.15872282186459       -1.15423640502070       -2.81754870200653
H           -5.66478206974819       -0.20760550847959       -3.01040282502947
H           -4.83408821713213       -3.75392612503000        2.34044091342889
H           -5.20433497979799       -4.99847449679178        1.11701905926001
H           -3.54834551889858       -4.38032003215165        1.29156086906327
H           -3.07788588461804       -2.23243570519975        2.08358003207120
H           -2.20647143418848        0.02787890872108        2.05379778108952
H           -3.04546843915262        2.37053795619522       -1.85406327316873
H           -1.64974109967460        3.20470437868913       -1.18793086341669
H           -1.79997340897643        0.22112833603021       -1.61512384588493
H           -1.06034790326414        1.37559921833883       -2.72908353165458
H           -0.70829781824619        1.63696830443285        0.71609905218263
H            0.65460038172554        1.97884090412028       -0.99296757120221
H            2.13780994048821       -0.67938511881152        0.73200618520064
H            2.29763088182468        0.97027996129887        0.10799481830516
H            2.75768344031842        0.05645215949524       -2.16485980523351
H            2.68877461042775       -1.59073716090939       -1.51330479736892
H            4.61911727083919        1.55322434849033       -1.56141176297014
H            6.92231212944531        1.75986482834800       -0.78742048296071
H            8.64613489812167        1.81466974776897        0.80841685933401
H            9.19335202003208        1.14789372522846       -0.75555146836668
H           10.03912213233744        0.70589696745121        0.75169453331883
H            7.06049120809179       -4.24111980811898        1.65206042695397
H            5.44386383438502       -3.50701657703460        1.79278536352945
H            6.02408060427618       -4.09157136043906        0.20899111085024
H            4.41209295651403       -2.40349321662906       -0.00995330876342
H           -0.22587136884498       -1.65295686719657       -1.63326279821237
H           -1.00615366206093       -1.26532355698161       -0.07972301038574
H            0.56403613008947       -2.07357589009459       -0.10717255433443
H           -4.65770285002589        2.98251339990081       -0.19224650153236
H           -3.75199881150575        3.05262342977600        2.69535713429540
H           -4.81571147938938        1.86743947859722        2.03465411564324
H           -5.37189298930654        3.55392844342719        2.07026981798007
H           -2.57592038512238        4.69250560278463        1.20222017233590
H           -3.03805823668497        4.80274161323066       -0.50050886709538
H           -4.20364505070707        5.22222175174181        0.75437306710671
H           -0.65965882815303        2.79744097636315        2.78093308660370
