72
 energy: -1.462782858129 xtb: 6.6.1 (8d0f1dd)
N           -1.62425896230227        2.90376688351358        2.32265873962578
C           -1.63626796576158        2.18144951968873        1.29443009284689
C           -2.81778648307118        2.08883842580446        0.37024341660078
C           -3.47665519708906        0.72014340510027        0.50918848238403
C           -4.42924890330158        0.32490646994818       -0.43163497219632
C           -4.88981185497696       -0.97192185352177       -0.50705891178095
O           -5.80370787489537       -1.43829485036545       -1.40816926643720
C           -6.40240608310646       -0.52427948460821       -2.27955116532653
C           -4.39569671554954       -1.93641076924538        0.38879542590786
O           -4.89989464623561       -3.19311532972998        0.24032379975119
C           -4.49585207909708       -4.14903999475701        1.18637018158940
C           -3.50248280373167       -1.54387681258735        1.36120119471799
C           -3.04309237744544       -0.23396670503344        1.40908326588555
C           -2.23484572127756        2.20603027696338       -1.08447052332201
C           -1.30459546990564        1.10400809351881       -1.61231775368303
C           -0.00794413039224        1.05085568949825       -0.88446158902484
N            0.63039620669735       -0.12024680459863       -0.50767955207044
C            2.01426493575838       -0.10011469294011       -0.14404608293658
C            2.94181328378416       -0.59478826124416       -1.27589293024697
C            4.37145713492637       -0.46644417105306       -0.85273663279290
C            5.07556795808327        0.70355534336551       -1.05459858079630
C            6.38571056303897        0.83257539605220       -0.61700534375045
C            7.01476012097651       -0.21038940645783        0.04263132030140
O            8.29683121836645       -0.20009667404914        0.51077996081213
C            9.06850598884476        0.95250810131855        0.29152832746370
C            6.29945536743089       -1.40749852850789        0.26896546642342
O            6.98635993597038       -2.38799142447927        0.92272174092404
C            6.34687550791243       -3.61818155565834        1.14029119897269
C            4.99633060923597       -1.51380045605082       -0.17946246834043
C           -0.04391506726881       -1.38133431851972       -0.55501437618969
C           -3.88487626808207        3.18974993856421        0.53746662036904
C           -4.50506932809189        3.11873340287266        1.91560665056215
C           -3.35956338803656        4.59546442075743        0.37578938265330
H           -4.79498567055956        1.04418540832522       -1.13822283891749
H           -6.91754153030012        0.27250594694402       -1.72716823240875
H           -7.12511338519487       -1.09155337500996       -2.86314983525172
H           -5.66653492743051       -0.07831400597563       -2.95322913452681
H           -4.73745893545104       -3.84273862033397        2.20196999139419
H           -5.02850944247505       -5.05417510697522        0.92136931698060
H           -3.42509192161553       -4.34875069498540        1.16206504324555
H           -3.12848165898757       -2.26854654553551        2.06386648900180
H           -2.33355138106283        0.02677288023160        2.16757205766670
H           -3.07255725079124        2.31325918066153       -1.77530578681643
H           -1.64530169283016        3.10675746187410       -1.15091844486835
H           -1.82672930332308        0.15998592546869       -1.53409015120850
H           -1.16729514087427        1.30406480089577       -2.68654178592842
H           -0.76914019260996        1.61782294406860        0.89500554977834
H            0.65658827865773        1.86983862343787       -1.08866038080419
H            2.17950028362853       -0.72411307760864        0.74495461831796
H            2.29128468736271        0.92613596192211        0.11217712938992
H            2.74404656242447        0.01901751753826       -2.15443854281281
H            2.70327222535331       -1.63663914620043       -1.50863085405432
H            4.60360927535331        1.52843823594175       -1.56093931958838
H            6.90601984044189        1.76168200513744       -0.79391478002508
H            8.63686816000722        1.82675791573398        0.78931862166753
H            9.17999181074673        1.16704660548696       -0.77772206189274
H           10.04365929939955        0.73809517355915        0.72651144054259
H            7.08135098166145       -4.24742876891937        1.64036201810251
H            5.46449019551576       -3.50819788807887        1.78169988122940
H            6.03732824295302       -4.09227897719625        0.19994699990668
H            4.43856321937001       -2.42040018656855       -0.01820381676000
H           -0.23583592798658       -1.71855842809616       -1.58267745948759
H           -0.99102848061019       -1.31814682644321       -0.01210667492113
H            0.57427489516430       -2.12474613447047       -0.06476348388391
H           -4.67439215794767        3.05282956613046       -0.20899423546694
H           -3.75747270143308        3.40013270555824        2.63587639554181
H           -4.70339582074266        2.11659358169172        2.18512707963195
H           -5.42431675178297        3.73023031531252        1.92806755613294
H           -2.52112713605965        4.72609265199555        1.05220411493030
H           -3.03522959047642        4.77907305893363       -0.63298015137292
H           -4.15439845854764        5.29644485809404        0.63656603138634
H           -0.79245609267736        2.87496778924973        2.89800668150562
