72
 energy: 9.098451547909 xtb: 6.6.1 (8d0f1dd)
N           -1.72847995373620        2.99662748144112        2.38662972354775
C           -1.70853578634196        2.21474418770392        1.40247278923892
C           -2.87011051186659        2.10644211135216        0.44501877731462
C           -3.58627046405329        0.76239490669401        0.63651819447416
C           -4.51777482211736        0.37455782985163       -0.33191392460134
C           -4.92107796343806       -0.93390328756122       -0.48780964356386
O           -5.79216286681271       -1.38335433163521       -1.43533317920554
C           -6.41191529089950       -0.45979703041875       -2.27041110917791
C           -4.38709333956767       -1.92882801291654        0.35032276276380
O           -4.81085925304177       -3.20394959967309        0.12265577006822
C           -4.37850726743851       -4.18092631754731        1.03676204901744
C           -3.55717659633835       -1.54563185491206        1.37954358275745
C           -3.14825581427271       -0.22184877268115        1.50547480006417
C           -2.25817425323505        2.13141816776601       -1.00693627970176
C           -1.34872771796545        1.00842242348249       -1.52668050241906
C           -0.02664822098313        0.95468085685719       -0.84841898297711
N            0.63059260773464       -0.19630615095479       -0.45767459150927
C            2.02317805866206       -0.15909042992235       -0.12598892832500
C            2.94334724905495       -0.64316889916246       -1.26973433816382
C            4.37647204293751       -0.49917009512044       -0.86132246924022
C            5.06611722135897        0.67876333549610       -1.06336082294029
C            6.37751839472750        0.82380509407259       -0.63453656331337
C            7.02519617981239       -0.21157139019906        0.02135232476527
O            8.30979673771233       -0.18780489741961        0.48623311390648
C            9.06681925728154        0.97330433158293        0.26715009639863
C            6.32184569264095       -1.41471023028531        0.25373369827887
O            7.01371452137615       -2.39121232246803        0.90950964652006
C            6.37410824139155       -3.62146066842157        1.12897017187844
C            5.01883058846406       -1.53542389485118       -0.19196916553246
C           -0.04070978761548       -1.44880067953364       -0.49992749354744
C           -3.87850244751302        3.26714751817984        0.51678891544282
C           -4.44294864842466        3.28220723071977        1.91173691342867
C           -3.32417358577318        4.63730061883458        0.25899158819401
H           -4.89833203479641        1.10648062068046       -1.01750932995350
H           -6.98850063815041        0.27902076583454       -1.68826098308036
H           -7.08922881659889       -1.02579003313699       -2.90636264259222
H           -5.67552483022303        0.05359383034207       -2.89439074985746
H           -4.63866367293081       -3.94157365896355        2.06234502063511
H           -4.85145942879852       -5.10089411339516        0.71841831734732
H           -3.30240664817895       -4.32185560049410        1.03271548012253
H           -3.17706805805875       -2.30574898156399        2.04197849503964
H           -2.46640226646132        0.01971861487302        2.29540184593847
H           -3.09661570711731        2.22825341968835       -1.69702471233154
H           -1.64324381456482        3.00315621123716       -1.12235251025581
H           -1.86569751307829        0.07291594272354       -1.39107168487602
H           -1.27780938219371        1.16297154646150       -2.61373162145136
H           -0.83995033828444        1.60139870932761        1.09423431967757
H            0.65342861400751        1.70580664985931       -1.18247101392841
H            2.22458644008558       -0.77794135231854        0.76008412988328
H            2.28604785879004        0.87382597164574        0.12276533255532
H            2.73085311870446       -0.02592161584261       -2.14332346146234
H            2.71486653576962       -1.68795303034751       -1.50146290542222
H            4.57936958768959        1.50143007888866       -1.55957513151789
H            6.88032856768165        1.76425572540808       -0.80391701817759
H            8.62857249670748        1.84137056925806        0.76936501998329
H            9.16850048006507        1.18909675360456       -0.80230687418228
H           10.04678195589295        0.77116727385736        0.69789028713865
H            7.11262931652996       -4.25151549099086        1.62306638889316
H            5.49310685221293       -3.51092396560245        1.77223196014672
H            6.05748675492256       -4.09471894109704        0.19008744831196
H            4.46732693780133       -2.44393793614399       -0.02766529914355
H           -0.24670266841254       -1.78803322696595       -1.52541112565637
H           -0.97639876806711       -1.37719472346276        0.06111273380334
H            0.58745353390697       -2.18212140414273       -0.01711972714939
H           -4.68512822908790        3.12989257084885       -0.21048475966060
H           -3.77014663150003        3.77478072334506        2.57822055057995
H           -4.48747234927772        2.33610019345912        2.34868247364080
H           -5.45049465512719        3.56642805829858        1.90202804820294
H           -2.45937431411507        4.77378282015544        0.89602848573381
H           -3.03681408916889        4.75314823627306       -0.76581909005940
H           -4.09785150545048        5.36437941450948        0.51332862274311
H           -0.93476549763749        2.96396790563887        3.00808258635216
