72
 energy: 48.686276738229 xtb: 6.6.1 (8d0f1dd)
N           -1.90956825495206        3.14299165954518        2.47668590689125
C           -1.82039237225328        2.27698232462302        1.56467372295913
C           -2.87318999107094        2.16435582379387        0.48282032685188
C           -3.77264887652031        0.82427935501780        0.86989681940740
C           -4.68672343305207        0.44975191283706       -0.13511019507235
C           -4.96880105924338       -0.86877584252966       -0.44328751914990
O           -5.73858275622717       -1.28243323247727       -1.48960498569653
C           -6.42400644777576       -0.34205862871456       -2.24591448819110
C           -4.34940556739037       -1.91403964417809        0.27748889098093
O           -4.60289999074148       -3.20367249100346       -0.10832667977684
C           -4.13950970856551       -4.23373918392524        0.73899591951625
C           -3.63017306126056       -1.56779663918786        1.40134357703324
C           -3.34266878703575       -0.22055726364900        1.68755200048944
C           -2.29976422689190        1.98825689940141       -0.92559863598819
C           -1.43858575200112        0.79417275311141       -1.32841104981788
C           -0.08018795757158        0.80823642483794       -0.73086125988135
N            0.63107711542558       -0.31618743634948       -0.35595530615849
C            2.03523101270051       -0.25014122322767       -0.07835037651687
C            2.94130746683861       -0.70945304606898       -1.24686004952519
C            4.38002519661400       -0.54170724243048       -0.86609985377809
C            5.03700175491005        0.65672979269129       -1.06169148150290
C            6.35154307361275        0.82171231901996       -0.64934722586506
C            7.03704335779590       -0.20908257031482       -0.02080774452726
O            8.32950405368706       -0.16113414412611        0.42603087507795
C            9.06076179081911        1.01528880214327        0.21216896753462
C            6.36004932890589       -1.42679349642430        0.21777259747716
O            7.06702119405295       -2.39587227347514        0.87091183903480
C            6.43328645375432       -3.62861768133505        1.10101621853012
C            5.05470668743403       -1.57000222079816       -0.21563634200975
C           -0.03177456799425       -1.56373394666417       -0.38020611962147
C           -3.79429545588853        3.40264448490180        0.47431964867672
C           -4.30510775682702        3.57464811001300        1.89024706101294
C           -3.22609189109352        4.70690585003859        0.02380910484116
H           -5.11307499882734        1.20427058714514       -0.77619548681691
H           -7.11631517792815        0.26160086842716       -1.61451308423816
H           -7.00882500548322       -0.88897003851506       -2.98167328711828
H           -5.70616602886418        0.30727019427366       -2.76600870721592
H           -4.43971065637469       -4.14636987913568        1.77536803331264
H           -4.49777939974519       -5.16155702230855        0.30261932449349
H           -3.06265288038322       -4.27142462529625        0.77981868493940
H           -3.18921922503909       -2.38131458530446        1.96984482158758
H           -2.72963471785180       -0.01325603506647        2.54909469311767
H           -3.15317925706821        2.02515808844936       -1.60095359800111
H           -1.67782934448359        2.81966331876295       -1.18824026899260
H           -1.94429858835134       -0.10500782374266       -1.01741282163109
H           -1.46935717770106        0.77950140334549       -2.42819697684110
H           -0.98374518783799        1.56191081798762        1.47042723055954
H            0.56047826381932        1.55398332625099       -1.14496436217627
H            2.29697460170104       -0.86244157614259        0.79777403436381
H            2.27598800203991        0.79024552860455        0.15634344788387
H            2.70203793898548       -0.09546088387907       -2.11655066437074
H            2.72515725588254       -1.75436778528434       -1.47843788979393
H            4.52688143052012        1.47401761094922       -1.54694459997705
H            6.83134490338318        1.77330018926109       -0.82060788759717
H            8.61371196267539        1.87137129100680        0.72724120419926
H            9.14549642871254        1.23476951434250       -0.85621608356293
H           10.05051086395459        0.83274327987951        0.63152870614351
H            7.18731343608347       -4.25580832911761        1.57870532586400
H            5.56136443590676       -3.51947245969952        1.75549776954814
H            6.10614222416547       -4.10347772094095        0.16782466755282
H            4.51962379415100       -2.48872878424980       -0.04844876294386
H           -0.26835783818791       -1.91460342995516       -1.39590795165589
H           -0.94665579622043       -1.49054745236690        0.21641523546955
H            0.62055744963619       -2.27861846839836        0.08566022372450
H           -4.62854231930517        3.26067157444335       -0.20111567066712
H           -3.87893508390807        4.43462785576349        2.38251828778488
H           -3.88559200929128        2.86768204309084        2.56071521853610
H           -5.21643873072426        3.05732073863303        1.92149616422856
H           -2.31732504769482        4.87982398445455        0.57495156721040
H           -3.03882068442886        4.69797346015161       -1.02592071887769
H           -3.96456769711372        5.47718439604677        0.25437469469441
H           -1.23376218079483        3.07673407611275        3.21734510321362
