72
 energy: 108.599878274967 xtb: 6.6.1 (8d0f1dd)
N           -1.90071517510750        3.26759226663644        2.36219144242146
C           -1.84381714811963        2.28903490571887        1.44638734996079
C           -2.53028832835665        2.46265488729616        0.30652967050022
C           -4.34271556998251        0.70111769229860        1.43023849084327
C           -4.97590266104299        0.41892554456215        0.20409642043222
C           -4.95313269122623       -0.83585227603635       -0.39289690924572
O           -5.56785118739012       -1.15949374045254       -1.58221416834617
C           -6.41326530974000       -0.23125928871443       -2.20027452178251
C           -4.24298429362225       -1.90145832908417        0.19665333407341
O           -4.30431509595092       -3.12862349984174       -0.41273039196544
C           -3.79551838687576       -4.24934812016630        0.28825678472361
C           -3.63978327658487       -1.67204580669126        1.42142206600727
C           -3.65826935531712       -0.38193560918183        1.98513462031499
C           -2.36305730480643        1.81992801494348       -1.00492539293714
C           -1.55830338260357        0.54886131784415       -1.08642803718359
C           -0.19726314401441        0.68809033872556       -0.55293843649815
N            0.57215352892810       -0.36484875885701       -0.17169729307535
C            1.99145475708685       -0.24386509969678        0.03909554794883
C            2.86735879329052       -0.71042082181630       -1.15028491094632
C            4.32119115439200       -0.54069149324166       -0.80534129432549
C            4.96690162233535        0.66042172883440       -1.02691955849292
C            6.29385361447548        0.82898774540795       -0.65946720699032
C            7.00214939424080       -0.19674155320009       -0.05508756304988
O            8.30487837608125       -0.13822685889702        0.35154386149298
C            9.03000995146347        1.04672815783643        0.13397949781098
C            6.35398055910576       -1.42909837580196        0.18539200365716
O            7.10320576665977       -2.38958868705607        0.80397281023598
C            6.50346844995397       -3.63518815482835        1.05358989436465
C            5.03412764831240       -1.57792365469346       -0.20242987429416
C           -0.01820710273062       -1.66670401846544       -0.19138764417946
C           -3.55849136717025        3.55813557826918        0.35971388293961
C           -3.88396341865473        3.91589311160479        1.74344090671130
C           -3.04793485743102        4.78407652581281       -0.32638660788045
H           -5.44769027426043        1.20755330126863       -0.37599740125211
H           -7.24264320567163        0.07171825874255       -1.53992989770354
H           -6.84335442605078       -0.71094236904819       -3.07536798263857
H           -5.81707179543697        0.63084615002725       -2.52897336480914
H           -4.16097209468173       -4.39150243724177        1.29392197182408
H           -4.00622831870735       -5.11916243864401       -0.33606300209435
H           -2.72949442522280       -4.18094650794390        0.40808886048633
H           -3.11374899851469       -2.50768665642395        1.88740090841345
H           -3.10963518922508       -0.22948705206813        2.89316410486564
H           -3.28913352230885        1.72467481853444       -1.56265051251983
H           -1.78174104086693        2.56024027702693       -1.54054017669418
H           -2.07140075964854       -0.23175977071023       -0.53622016024912
H           -1.59216657170562        0.25311075855459       -2.13963811774161
H           -1.17336589477011        1.44950854046649        1.62743015086369
H            0.31003524659865        1.61263562442042       -0.73564495262674
H            2.27144394383850       -0.82687105125351        0.92392516944699
H            2.22271767962806        0.80187167955291        0.23499389467125
H            2.62152127604015       -0.11347092220623       -2.03161889208981
H            2.65059220155387       -1.75716565635639       -1.36694899379098
H            4.44455052107666        1.47871708616661       -1.49888210695361
H            6.76980322840180        1.77696063797228       -0.85360121633996
H            8.58716046990836        1.89634452165551        0.66505752107562
H            9.09579428721872        1.27910565570912       -0.93251671283749
H           10.03474385892915        0.87224122229245        0.52773587002771
H            7.28154523928452       -4.24735963180136        1.50903544973705
H            5.64988480074568       -3.54462465384151        1.73365932672956
H            6.17021722399763       -4.11617763827659        0.12857957054805
H            4.52558731492289       -2.51320351089658       -0.03638230985412
H           -0.30308631139378       -2.03592278927500       -1.18631081965238
H           -0.90006591638075       -1.63840471576356        0.45595745343959
H            0.68136115197585       -2.36669249468809        0.23075039913676
H           -4.45644320654140        3.32570527016665       -0.20271226612175
H           -4.14252740789862        4.96359254444602        1.79463863396252
H           -3.58816845379780        3.69900879738617        2.72604073600066
H           -4.49145118927608        1.88866658212110        1.88423213980197
H           -2.08368064447873        4.98760913741133        0.10302568284090
H           -3.01313947855288        4.60586604311706       -1.37912356082727
H           -3.73118176696448        5.60348040602011       -0.11710310769412
H           -1.79805951955320        2.96304705345934        3.32621544282348
