72
 energy: 81.768571185141 xtb: 6.6.1 (8d0f1dd)
N           -1.96193016896458        3.16467098498301        2.50079729696278
C           -1.85741199587221        2.28174116972976        1.60107148641265
C           -2.83441520544659        2.21565490854156        0.47296940169704
C           -3.87195853384605        0.80564390589690        0.99260771002142
C           -4.76961327533795        0.45433749751808       -0.03598334554382
C           -4.96916101697413       -0.85722061946969       -0.42370265291505
O           -5.68800384597304       -1.24587447937874       -1.52135834499188
C           -6.41819057444609       -0.30013804596723       -2.23401385735308
C           -4.32088028193225       -1.91659170846778        0.24788386196242
O           -4.50629895131691       -3.19807382534035       -0.21731311035791
C           -4.02246474701022       -4.25383004038315        0.58909561437793
C           -3.65153634502198       -1.60939388843951        1.41531829533584
C           -3.43046587098483       -0.26295752081622        1.77453010974196
C           -2.32814896309962        1.92004603845378       -0.92304003453369
C           -1.48283853119030        0.69361219340721       -1.23839974610002
C           -0.11605561324118        0.74337108940848       -0.67206144255836
N            0.62564223380493       -0.35539260759012       -0.30257018552016
C            2.03141707002136       -0.26459284853333       -0.04491126411925
C            2.92382591556135       -0.71545049425583       -1.22013946323867
C            4.36538119348772       -0.54492288038658       -0.84840685893236
C            5.01511210077044        0.65718502741670       -1.04959848612956
C            6.33402449735769        0.82432776224639       -0.65236558375134
C            7.03125560258211       -0.20411280993944       -0.03350361768565
O            8.32977665471129       -0.14981817665209        0.39865045034634
C            9.05465072723258        1.03155893243759        0.18503661917864
C            6.36861964892641       -1.42986853458878        0.20233827253206
O            7.08706901898238       -2.39613557700545        0.84797199253787
C            6.46073264442420       -3.63162460118145        1.08563715451301
C            5.05973897656281       -1.57773311468246       -0.22082763323590
C           -0.02545314566302       -1.61013641938173       -0.31792571053594
C           -3.72629445548236        3.45791304533081        0.44549253559313
C           -4.23472486300000        3.69028209753583        1.85480041549128
C           -3.17060441776036        4.73472649633333       -0.09136742177064
H           -5.21693555435708        1.22685230441158       -0.64964942484128
H           -7.16415886602153        0.20772573975951       -1.58751242109223
H           -6.96133453262107       -0.82427267046217       -3.01651280873497
H           -5.72505611819550        0.42289810701329       -2.69548269991906
H           -4.33994929112940       -4.24293614153698        1.62411709052017
H           -4.32514437891820       -5.17456384586686        0.09219451574086
H           -2.94788839864437       -4.24360996382753        0.65275576030956
H           -3.19462920847364       -2.43878134633231        1.95131396200074
H           -2.85322617320851       -0.06230251605668        2.66197074507743
H           -3.19449920904267        1.92135699146031       -1.58456452659396
H           -1.71472219329892        2.73157498042331       -1.27518175357785
H           -1.98265323041208       -0.17795143395536       -0.84199854684416
H           -1.53657600121466        0.59369328276703       -2.33459820047950
H           -1.06246321439096        1.52135065190076        1.60845247988623
H            0.47747177438712        1.56492681390612       -1.00770713004123
H            2.30915888253133       -0.87306618910523        0.82778695649003
H            2.26556023490254        0.77651452814819        0.17945468463658
H            2.67940379562809       -0.10618228272704       -2.09254851156222
H            2.70236255409475       -1.75966786553506       -1.44345285758082
H            4.49921445398438        1.47450980282592       -1.52988544853841
H            6.81050329493569        1.77614084340146       -0.83045997523010
H            8.60648480826343        1.88379592439385        0.70623348383726
H            9.13208787334638        1.25415889475396       -0.88273005475277
H           10.04957899911144        0.85513354750717        0.59663680046713
H            7.22239843957579       -4.25564939240945        1.55634183340067
H            5.59483819881415       -3.52483535675935        1.74772298388027
H            6.13086338452229       -4.10855272922111        0.15558609792123
H            4.53547861541907       -2.50413118133472       -0.05584042928282
H           -0.27988241716209       -1.96724654783380       -1.32661005465940
H           -0.93024203273935       -1.54389145848630        0.29613438943394
H            0.64054758563068       -2.31790654925039        0.13666935640956
H           -4.58308688891286        3.32010973137910       -0.20244338571745
H           -3.96978884816899        4.67949818256173        2.21176185756077
H           -3.67856298804555        3.20318957180185        2.62931172079800
H           -4.95429194926638        2.88206572032011        1.94080775536005
H           -2.24189259538114        4.92737262821186        0.41430150255937
H           -3.03892036697948        4.67058140807223       -1.14826230846798
H           -3.89367414876940        5.52311857027442        0.12777694028702
H           -1.38678882720756        3.05000636666726        3.31470112915014
