72
 energy: 46.261008816817 xtb: 6.6.1 (8d0f1dd)
N           -2.08676109267530        3.32658931523320        2.32983477862764
C           -1.86344488343815        2.31034181397182        1.40374726302770
C           -2.52140573406073        2.47875425132423        0.26039784650078
C           -4.47872399740112        0.59738330975679        1.52216154574913
C           -5.07136500967345        0.36371489859806        0.27645292236069
C           -4.96318885247868       -0.84702459134622       -0.39412043885955
O           -5.51692878792247       -1.12398795081166       -1.61520386346997
C           -6.40806213016506       -0.20136472299412       -2.18697375118735
C           -4.21301208476863       -1.89693784394051        0.17634091033156
O           -4.19925766478961       -3.07900021533392       -0.50702121896223
C           -3.68733066461732       -4.22499941651132        0.13956202675906
C           -3.64688712350462       -1.69132344133373        1.42419076887243
C           -3.75225269466251       -0.45453599507417        2.06449222015007
C           -2.36976518163058        1.79697028616459       -1.04531352621750
C           -1.59445065258582        0.50377560985849       -1.02072957684235
C           -0.23726299881185        0.70757163129233       -0.48465493726784
N            0.56468320330789       -0.37064609004976       -0.14793223021201
C            1.97167973385852       -0.22943379511603        0.07462023527336
C            2.84744158621408       -0.70662597444507       -1.11902633347634
C            4.29845052905024       -0.53889334591406       -0.78854028908019
C            4.94418618408462        0.66310776852984       -1.01633309705867
C            6.27288895142851        0.83254517036191       -0.66210954220768
C            6.98285813032455       -0.19527321185650       -0.06515203180479
O            8.29244586527937       -0.13880790422855        0.32729613245140
C            9.01410490184446        1.04625172460066        0.10683327118795
C            6.33660141381918       -1.42716004399054        0.18091281288187
O            7.10161302568155       -2.38666252216345        0.78296631095082
C            6.51925826120077       -3.63910952334487        1.03447260048964
C            5.01446142531703       -1.57802933810830       -0.18860624277682
C           -0.01289185749935       -1.68100239468257       -0.13139104857017
C           -3.51027705066293        3.60236016678685        0.33942419009343
C           -3.54574199410693        3.93924426860681        1.81549264799571
C           -2.99075556613989        4.79767601629110       -0.40956599360675
H           -5.55940844786210        1.17998842258096       -0.25344222750686
H           -7.26476890919662       -0.00720123130947       -1.52615437300058
H           -6.78099360083348       -0.65189489773521       -3.10380410268282
H           -5.86815549964771        0.72051039323668       -2.43841268903784
H           -4.11222551596741       -4.45678452005981        1.10379735496549
H           -3.84831564228054       -5.05020033452228       -0.55269097497749
H           -2.62851605396273       -4.13917081509392        0.30026544526424
H           -3.07606801090697       -2.50105720304592        1.86724277005179
H           -3.23389013763085       -0.31801155409311        2.99110850995839
H           -3.32376955640157        1.65148480202835       -1.55768655048728
H           -1.80095959457606        2.50095073196052       -1.63720218241904
H           -2.11570441673541       -0.21514049410584       -0.38881660704124
H           -1.63754494659778        0.09190583627068       -2.03900216729455
H           -1.26692708024329        1.42121219375255        1.64909908466782
H            0.25212328828729        1.63933600261056       -0.61611289849926
H            2.25903919876692       -0.79774377656758        0.96919692985475
H            2.19961769605301        0.82044930526626        0.25866086771021
H            2.59289031114724       -0.11553706349441       -2.00212307480536
H            2.62475966611073       -1.75400783726060       -1.32862972521534
H            4.41734493160529        1.48100801675586       -1.48403238304094
H            6.74922570462161        1.77864941933143       -0.86344457102094
H            8.57592398267617        1.89513262510398        0.64304985408451
H            9.07526300603121        1.28467688630061       -0.95911576347138
H           10.01924999406344        0.86548056348126        0.49402776804375
H            7.30815375845596       -4.24349181895383        1.48135118729278
H            5.67319859256961       -3.56166927091409        1.72635691355527
H            6.18256458708270       -4.12094723718800        0.11126249347779
H            4.50945353984635       -2.51491658472544       -0.01500505643812
H           -0.32906981570347       -2.05349769716841       -1.11373597679196
H           -0.87803645970743       -1.66864495940458        0.54116378058150
H            0.69982183849255       -2.38601751789812        0.27053897399137
H           -4.46350422765129        3.37260738667707       -0.14080345942277
H           -3.82866066262577        4.99391224438032        1.85770236324481
H           -3.85551740361755        3.55334515610714        2.77219408834560
H           -4.62684006555788        1.69270847792527        1.91438899486194
H           -2.00476752520045        5.01325601915955       -0.03833248570474
H           -2.99450928610875        4.56925925254796       -1.46265898846208
H           -3.64873560210430        5.64046964661823       -0.22544630229500
H           -2.03170977548979        2.96981951227467        3.30497531132592
