72
 energy: 35.715639255645 xtb: 6.6.1 (8d0f1dd)
N           -1.87580888627120        3.11448709531895        2.46026399675528
C           -1.79923792422761        2.26509637792530        1.53356548561272
C           -2.88239502071473        2.14655211403050        0.47900381991409
C           -3.72925714190994        0.81681492298794        0.81171624240820
C           -4.64598640750391        0.43626614221732       -0.18456668605419
C           -4.95910291819854       -0.88133450824094       -0.45606110185822
O           -5.75905170903535       -1.30402478848810       -1.47509451749262
C           -6.42370611422167       -0.36671212531314       -2.25235818541774
C           -4.36085990566959       -1.91616416269769        0.29379571726294
O           -4.65523935774076       -3.20582403766821       -0.05181739168861
C           -4.19848206632749       -4.22201552816010        0.81298263889605
C           -3.61389724735482       -1.55604323993015        1.39369635696556
C           -3.29619447410000       -0.21345266172880        1.64254515876589
C           -2.28685039503517        2.02355963770627       -0.93622691618611
C           -1.41561095099646        0.84678928180495       -1.37862988732185
C           -0.05861747994119        0.83899175142554       -0.77325278281458
N            0.63166646989670       -0.29168823343830       -0.38063002726468
C            2.03385850521751       -0.23368406699016       -0.09146852830283
C            2.94288778216507       -0.70032166519097       -1.25407471600285
C            4.38068429777832       -0.53633634835713       -0.86754503708022
C            5.04607736437352        0.65712437391852       -1.06642323108847
C            6.35870432835088        0.82056981216871       -0.64763437069030
C            7.03565670780749       -0.21038835172453       -0.01148731668712
O            8.32576583252272       -0.16749418251856        0.44126490687121
C            9.06263109082922        1.00550865423723        0.22626613158127
C            6.35218259697639       -1.42438779576921        0.22674607438867
O            7.05465879748181       -2.39503207412234        0.88170075643210
C            6.41852360978430       -3.62686637178557        1.10844099453815
C            5.04781464547137       -1.56375429624944       -0.21027236036031
C           -0.03457368936604       -1.53852037633715       -0.41068041049063
C           -3.82638223379957        3.37386999195423        0.48563010394928
C           -4.34921996544798        3.51374982433755        1.89867137385014
C           -3.25322300345986        4.69184629999605        0.08157659880948
H           -5.05949940772238        1.18466819015631       -0.83783993515472
H           -7.08928109072315        0.27720081684568       -1.63324227722967
H           -7.03013814917342       -0.92201116714473       -2.96410819262355
H           -5.69718482154818        0.24693622744463       -2.79910392720597
H           -4.48912875898884       -4.09652288387271        1.84846158484752
H           -4.58458878856336       -5.15043185044950        0.40618185702316
H           -3.12083619707794       -4.28370069758780        0.84221960230901
H           -3.18597432698511       -2.35775871401453        1.98365442923401
H           -2.66408987544029       -0.00187181699226        2.48717539832637
H           -3.13532877131204        2.07660301925928       -1.61628849231288
H           -1.65927946070690        2.86340103366711       -1.15259620481186
H           -1.92488320150204       -0.06380863973205       -1.11269595882319
H           -1.42901015853927        0.87821521159955       -2.47751692893451
H           -0.94755724964846        1.57500413687320        1.38635873726601
H            0.60319523899706        1.55282051215358       -1.21519142911630
H            2.28309225501193       -0.84700308240192        0.78725874998868
H            2.27904277689494        0.80584426969141        0.14648777347221
H            2.70990102856975       -0.08387991772343       -2.12403337601603
H            2.72525836969674       -1.74607715863412       -1.48550857112823
H            4.53939583994335        1.47559982117136       -1.55238249722741
H            6.84166716060887        1.77095068927730       -0.81678875656123
H            8.61718440466325        1.86425616854947        0.73803352623009
H            9.15141701914718        1.22386959752413       -0.84244766841119
H           10.04986704326296        0.81872235393308        0.64892555000806
H            7.16837904310240       -4.25520720657338        1.59020360861472
H            5.54383877122854       -3.51707352122354        1.75952013464954
H            6.09348599000976       -4.10091700556003        0.17362106177601
H            4.50812706698031       -2.47910948509047       -0.04307511073728
H           -0.26287698052494       -1.88550383676511       -1.42961959551389
H           -0.95456633672623       -1.46340756619463        0.17664251759406
H            0.61138026640561       -2.25744505719916        0.05989623528325
H           -4.64858343758326        3.22857320524537       -0.20429877189974
H           -3.86513084068292        4.29910884081587        2.44741288850865
H           -4.02104832461212        2.72405830093587        2.51523585869158
H           -5.32640492369003        3.16894669809796        1.91061670530766
H           -2.35483022336428        4.85325309394980        0.65559058905981
H           -3.03823066267780        4.71148082971739       -0.96309555860699
H           -3.99935984849639        5.45238405231082        0.31846242196107
H           -1.16048422360078        3.06437011116595        3.16592821246885
