72
 energy: -3.988138846625 xtb: 6.6.1 (8d0f1dd)
N           -1.57775682991567        2.85787364826210        2.29024826910764
C           -1.60349604650679        2.16633723435031        1.24158820032520
C           -2.79046490102174        2.07897534878159        0.32438248887598
C           -3.42080987201602        0.69699152929996        0.44426904687651
C           -4.38604685504939        0.29819850411872       -0.48123225124781
C           -4.87505515980899       -0.99071873883875       -0.51572835838667
O           -5.80990474337853       -1.46126220121925       -1.39332230377731
C           -6.39895839468710       -0.55446022707501       -2.28395587379461
C           -4.39737975325672       -1.93957564427060        0.40746068544046
O           -4.93685583526977       -3.18563878657170        0.29901217643636
C           -4.55246131143076       -4.13286114442746        1.26111624445411
C           -3.47273691489844       -1.54355274018029        1.35047348382061
C           -2.98929989098222       -0.24162040661878        1.36080565202154
C           -2.22283095762410        2.24091671754096       -1.12488120183687
C           -1.28583133698779        1.14093644443450       -1.64500638030155
C           -0.00062351814115        1.09103051268226       -0.89608485307308
N            0.63084645114517       -0.08757127688771       -0.52976330006195
C            2.00986183937132       -0.07358632293801       -0.15140502496171
C            2.94077478482087       -0.57248412278524       -1.27851891351437
C            4.36854562889131       -0.45176593535661       -0.84855991002022
C            5.07835586041520        0.71555323107943       -1.04987161314737
C            6.38808296952615        0.83728516972308       -0.60896633158368
C            7.00912893616997       -0.20946874439598        0.05090340881445
O            8.29006472507941       -0.20498748333986        0.52005670957114
C            9.06933235802178        0.94310680849088        0.30267204897250
C            6.28882460182849       -1.40417031761085        0.27450484033394
O            6.97381277029383       -2.38609593622727        0.92733232425697
C            6.33499215053321       -3.61660279757242        1.14476071236463
C            4.98551368587045       -1.50438038861452       -0.17406747311316
C           -0.04561762244473       -1.35142860892056       -0.58014015521938
C           -3.88074512467859        3.15070918198561        0.55047353737653
C           -4.51606314844828        3.01654609946458        1.92178210806420
C           -3.37354317442808        4.57381713545580        0.43575342890273
H           -4.74894338962145        1.01174751977143       -1.19637828318362
H           -6.88670077497497        0.26961321099936       -1.75042360148678
H           -7.14242204375747       -1.12234925177449       -2.84091943012942
H           -5.66393293062323       -0.14423806489874       -2.98164582059754
H           -4.78460924039582       -3.79753534652365        2.27209401251074
H           -5.11640834923186       -5.02743783276114        1.02062975835284
H           -3.48624050020912       -4.36439411576204        1.22658542795733
H           -3.10016633994755       -2.24971252870921        2.07320923145705
H           -2.26958090102935        0.02832619012484        2.10861694477047
H           -3.05988222819296        2.34675557822087       -1.81686556858499
H           -1.64703857054355        3.15630070038433       -1.17198238112898
H           -1.81133492989580        0.19500603449143       -1.58218785499419
H           -1.11285500034964        1.34812594911609       -2.71305368903227
H           -0.73592892464466        1.62749830435094        0.80375048573718
H            0.65385977000358        1.93567455224248       -1.03798362552774
H            2.15800774946043       -0.70069930287440        0.73749175059048
H            2.29371638140354        0.94923895529350        0.10892549190451
H            2.75115196698388        0.03963368044713       -2.16011806878991
H            2.69696012605467       -1.61212863368243       -1.51241307566207
H            4.61285863085060        1.54196360671835       -1.56087120848604
H            6.91588291147598        1.76097760726350       -0.78967405928377
H            8.64172866767600        1.82031586456324        0.79920108836995
H            9.18673860366505        1.15710555829660       -0.76602616806236
H           10.04180218381695        0.72166454350930        0.73997176907820
H            7.06921131332001       -4.24459601597330        1.64682684181229
H            5.45288544244229       -3.50719658038144        1.78622311131307
H            6.02982615960600       -4.09143111812979        0.20403345298087
H            4.42503897651547       -2.41061888174122       -0.01433862716495
H           -0.23022975705923       -1.68626339633799       -1.60908215906361
H           -0.99873260476574       -1.29217191036187       -0.04701079808478
H            0.56855917321541       -2.09884407761443       -0.08667755364637
H           -4.66304458531253        3.01566236432335       -0.20375290014381
H           -3.76111562252491        3.22454288517132        2.66495611370721
H           -4.77016889287703        1.99782665670451        2.10396371757135
H           -5.41204750165591        3.67953164488028        1.97077454255939
H           -2.54826943319946        4.70886622653644        1.12835221220495
H           -3.03658032386128        4.79211723622810       -0.56555977945501
H           -4.18044063252128        5.25922910003758        0.69796951426976
H           -0.72654079166865        2.83581910546317        2.84080757387625
