72
 energy: 122.097671380950 xtb: 6.6.1 (8d0f1dd)
N           -1.88725158859678        3.19895302936647        2.41470485826636
C           -1.84489153082091        2.26624990882901        1.54534348748047
C           -2.68111374454961        2.35510310364481        0.39260258407560
C           -4.06799547745164        0.71929353728007        1.18345500741589
C           -4.86943498105547        0.43641731521367        0.07755009103503
C           -4.97803320178917       -0.85766484101725       -0.39887172097879
O           -5.63355898133071       -1.21086575732267       -1.55698957960317
C           -6.41712130099843       -0.26580932196456       -2.21729986717703
C           -4.28920140263900       -1.91893061812248        0.22278789137842
O           -4.40898232947541       -3.17937498437098       -0.32182512112498
C           -3.90789153145288       -4.26385816616846        0.43798309157669
C           -3.65571386494176       -1.67051263073922        1.42397894721633
C           -3.53350470138353       -0.34319408580809        1.87957749461628
C           -2.34478057785258        1.86520488905436       -0.95729177599237
C           -1.52260830305183        0.61012525669207       -1.15960615073168
C           -0.16093987454455        0.69978123067189       -0.61269059543851
N            0.59580865671944       -0.36277534487830       -0.24078366996738
C            2.01129531248725       -0.25655020546190       -0.00177687100391
C            2.89476453216777       -0.71389001771320       -1.18404104439687
C            4.34480234513936       -0.54333286763110       -0.82598463319536
C            4.99105223327398        0.65866662280211       -1.03775441137305
C            6.31457750668421        0.82645774249928       -0.65626558642358
C            7.01953058750009       -0.19963134469858       -0.04506176456593
O            8.31896804722358       -0.14147566103773        0.37440120006630
C            9.04526038995929        1.04214047852196        0.15955072484210
C            6.36835012201567       -1.43121039920725        0.19071712827460
O            7.09966841337021       -2.39416802046482        0.82524323461626
C            6.48389333215059       -3.63354850922920        1.07022110477186
C            5.05307019666984       -1.57888073613268       -0.21639257830012
C           -0.02331504676223       -1.64279767425217       -0.25359446040364
C           -3.63446436437468        3.50838613002226        0.40866404014035
C           -4.13943378837258        3.72002813068233        1.81292332949843
C           -3.10613065654192        4.76477089712503       -0.19847929298429
H           -5.32805726839373        1.22389719954568       -0.51294538558943
H           -7.20813945836464        0.14389618519184       -1.56115409340643
H           -6.90902146546797       -0.76466249862469       -3.04691362724004
H           -5.76915140222472        0.52990396554513       -2.61499921408622
H           -4.24057163608667       -4.32504412137960        1.46634635518823
H           -4.15907186980970       -5.17152031523900       -0.11721234519302
H           -2.83677430448768       -4.21482617713864        0.52744841119879
H           -3.17209569453183       -2.50487783042725        1.92465753315100
H           -2.97519433577061       -0.14800765659558        2.77531400175923
H           -3.23831621676047        1.81905565751361       -1.57425711228929
H           -1.74524500511305        2.64581863969891       -1.40575046145762
H           -2.02567589429398       -0.22485485764289       -0.69054577761016
H           -1.56382356445644        0.42078994455375       -2.23971412720636
H           -1.14082382991214        1.44675718078605        1.67663519339271
H            0.38353850411378        1.58692405507859       -0.86813715032243
H            2.29287648528661       -0.84973454789438        0.87850796300633
H            2.24431451203176        0.78612701313661        0.20616139487979
H            2.65054358297828       -0.11046309370589       -2.06146852707728
H            2.67681053975177       -1.75914385038346       -1.40530603180410
H            4.47177503029769        1.47645799393398       -1.51390755561286
H            6.79022205964834        1.77662336865462       -0.84227165777896
H            8.59880030960523        1.89256957784825        0.68582492316876
H            9.11642864482722        1.26919542438887       -0.90761892890551
H           10.04565242595934        0.86827339949926        0.56223309414995
H            7.25277054609925       -4.25195667259802        1.53441826644983
H            5.62418960709755       -3.53073425569110        1.74032803851677
H            6.15278697923205       -4.11314203585008        0.14304815764242
H            4.53996730326118       -2.51230739853636       -0.05716880112556
H           -0.29103209018508       -2.00654155360405       -1.25528132435299
H           -0.91684930446049       -1.59421722370499        0.37619902889118
H            0.66069358415904       -2.34399715224586        0.18570724980472
H           -4.51336085579911        3.36067504892066       -0.20594618120119
H           -4.10394848734395        4.81411558158257        2.00748783713948
H           -3.51361765320103        3.51840714538909        2.66951202142207
H           -4.68727818653912        2.69440127063569        1.95337874786981
H           -2.15754151539945        4.96375188252944        0.26078437810230
H           -3.03699450552677        4.64407945505011       -1.25939419797556
H           -3.81509449933733        5.56743869250305        0.01176626340806
H           -1.56293346776321        3.03345550082982        3.34937395736619
