72
 energy: -7.648846726330 xtb: 6.6.1 (8d0f1dd)
N           -2.25713712067744        3.29517850317524        2.33318155155935
C           -1.92625028092654        2.34370556137876        1.37824094017585
C           -2.49560712039819        2.57356141947924        0.19647538733823
C           -4.62212344761660        0.39027635095916        1.63720406977643
C           -5.17332763668546        0.27382032664898        0.36783019858923
C           -4.95714402771156       -0.86452725529557       -0.38893037716763
O           -5.44814029229137       -1.08343234713256       -1.64178919303632
C           -6.37498042986165       -0.16876362065776       -2.16810708164919
C           -4.18219039828106       -1.91785243392491        0.14706918859966
O           -4.03088787562249       -3.00443279404567       -0.66405390175181
C           -3.48423767099798       -4.17777308862740       -0.11862308213161
C           -3.64902773120878       -1.79019739294937        1.41831930481062
C           -3.86332249871134       -0.63356635822507        2.15870209926321
C           -2.32363974999102        1.85457591454824       -1.10044138867444
C           -1.62678640886250        0.50359651651776       -0.95474308276660
C           -0.19859584517256        0.66302214169292       -0.60216597910354
N            0.55484205811534       -0.37595745207059       -0.09491384082738
C            1.95859152906930       -0.21489885568402        0.10615475954327
C            2.82436616033433       -0.70031284922153       -1.08560824397256
C            4.27498199293324       -0.53357805612792       -0.76538207067703
C            4.92260505784374        0.66717973778732       -1.00010606866471
C            6.25623043751680        0.83541036450063       -0.66009979277893
C            6.96656971134492       -0.19620974442206       -0.07058299016742
O            8.27902055189033       -0.14503820760855        0.30376135555437
C            8.99515131939758        1.03981842283154        0.07571385379878
C            6.31587885581090       -1.42551220746855        0.17906368304764
O            7.09574846849537       -2.38624426355277        0.75446988961493
C            6.53761101672393       -3.64959217400725        1.00170258216144
C            4.98643405372867       -1.57463081877410       -0.16371175945679
C           -0.00717947021645       -1.69462821599024       -0.01981760137370
C           -3.40870002960092        3.78015549750134        0.30893772716497
C           -3.34059117391119        4.11467376986833        1.81610858367471
C           -2.94263818903741        4.94832218256565       -0.56102452125030
H           -5.77654671626006        1.07968401772865       -0.01884202469562
H           -7.24154002747494       -0.05007014057204       -1.50869415531237
H           -6.70143221640258       -0.59540754659981       -3.11570723681401
H           -5.92405507671100        0.81235629929065       -2.35326351090348
H           -4.04841150748447       -4.51314466315440        0.75840927342856
H           -3.56251438171635       -4.92870243017533       -0.90376301031650
H           -2.43044864409204       -4.05348175210893        0.15431347060494
H           -3.07040131663119       -2.59307350106248        1.84864024734996
H           -3.43816698991844       -0.55155427618281        3.14755449973297
H           -3.31126490513274        1.69741823199859       -1.54529943635298
H           -1.75276993429960        2.47853370760823       -1.79766499226982
H           -2.15936605194243       -0.08282621759441       -0.19830383734931
H           -1.73145290351287       -0.04793291928132       -1.90351197654089
H           -1.22130100591057        1.57585955194412        1.63935415621642
H            0.28734421360292        1.61331204874027       -0.68296968210033
H            2.25024719243961       -0.77268940088440        1.00263727201303
H            2.17103952984143        0.84249754405686        0.28016482842419
H            2.55530182103016       -0.11465032678428       -1.96565575435537
H            2.59572966413084       -1.74866362597247       -1.28399778252538
H            4.38885915674585        1.48349228046512       -1.46350186366066
H            6.73413441419185        1.78004795942390       -0.86634789242814
H            8.56502396327462        1.88705170602717        0.62129836574701
H            9.04658445974825        1.28489183784710       -0.99092591311783
H           10.00022729790067        0.84656660174985        0.44821924311240
H            7.34227569296748       -4.24270911320235        1.43425841988043
H            5.70744592112337       -3.59556954725831        1.71487465524033
H            6.19249335645798       -4.12932382594665        0.07907985363167
H            4.47990529991811       -2.51007906488978        0.01949203084798
H           -0.39844836457640       -2.03662490019749       -0.98420565116286
H           -0.83178849317163       -1.70533154612484        0.69991087523019
H            0.75797483458475       -2.39164646858412        0.31564037738262
H           -4.43030230573133        3.51874429795513        0.00886637383107
H           -3.10472529847986        5.17065986719053        1.98272345871611
H           -4.29315214024286        3.89975778293916        2.31787140529971
H           -4.80254283209475        1.28400998143975        2.21260945429768
H           -1.91816807601297        5.21551443376272       -0.31359512926148
H           -2.98827494325493        4.67988662737895       -1.61382922313854
H           -3.57966957744207        5.81624185605338       -0.40151720412956
H           -2.28146773208190        3.03009689626862        3.30533014435465
