72
 energy: 9.928940473676 xtb: 6.6.1 (8d0f1dd)
N           -2.13208176002247        3.38316759019503        2.28560953006588
C           -1.85201087539834        2.36746828831313        1.35791326644895
C           -2.52176472815328        2.51284181784262        0.21812533689982
C           -4.59480355667640        0.51509679211184        1.56825690857930
C           -5.16565019058684        0.31775662411932        0.32793100188353
C           -4.97910339802184       -0.85726194709836       -0.39054575794389
O           -5.46852017447368       -1.08985949632734       -1.63951560319247
C           -6.39480016087307       -0.17278663414980       -2.16862121631217
C           -4.21692003985137       -1.90825579834909        0.16304626652890
O           -4.09973711524656       -3.02986153057850       -0.60286531447696
C           -3.57762686041963       -4.19233805885855       -0.00392614599854
C           -3.65900129150596       -1.72297688831268        1.41714517335337
C           -3.83919807585146       -0.52127111420299        2.10931992800568
C           -2.33702914062411        1.81418589979036       -1.07332211625354
C           -1.61290832332169        0.47495962680323       -0.95297750991081
C           -0.20099134837392        0.68982628836290       -0.52719249096204
N            0.56601909803617       -0.38294602474156       -0.08981821883737
C            1.96356525025572       -0.21511244206651        0.10864053637118
C            2.82686907010975       -0.70155211400058       -1.08781897581868
C            4.27832637668100       -0.53496962023929       -0.76924649620793
C            4.92304560936738        0.66602848616265       -1.00418786624687
C            6.25548462245338        0.83604501683339       -0.66316936226179
C            6.96832575862986       -0.19414184955474       -0.07396311330911
O            8.28067436775440       -0.14279915286753        0.30130500204004
C            8.99905127736080        1.04323760682959        0.08058422578829
C            6.32073655611242       -1.42455855097012        0.17636692301304
O            7.09818316020123       -2.38501484677555        0.75933735029500
C            6.53236564581187       -3.64467309969572        1.01347247936717
C            4.99500366289050       -1.57592003718368       -0.17474895886474
C           -0.00613036908212       -1.69535907025950       -0.06385026281889
C           -3.48824589906936        3.66922061782912        0.30247017124201
C           -3.47221605758799        3.99377653347336        1.81998636353663
C           -2.95275069287571        4.84999819080111       -0.48014004965699
H           -5.66117606202752        1.15254434228915       -0.14937537969201
H           -7.25257267300463       -0.03987955408437       -1.50243399008401
H           -6.72389559532030       -0.59152029368268       -3.11827471512828
H           -5.91735641771067        0.79531760845257       -2.35048641130992
H           -4.07722534859840       -4.49666159519996        0.90419478621247
H           -3.67791035777632       -4.97340738596153       -0.75756751165927
H           -2.52808813338103       -4.07053891288732        0.22262384812226
H           -3.07258719017045       -2.51292218209411        1.86076499333107
H           -3.34696814839252       -0.41594142449524        3.06264205050111
H           -3.31759053949257        1.65090315135669       -1.53341413006874
H           -1.76802631514824        2.47442221454707       -1.72561633708536
H           -2.13682998929219       -0.17428479515390       -0.23802170607401
H           -1.70177122368280       -0.04649214056219       -1.92074330787051
H           -1.20000895247375        1.51982898317859        1.57890183465202
H            0.31693433237979        1.61492446254647       -0.73795238264221
H            2.25033289002274       -0.76361731096154        1.01257049752073
H            2.17507752241765        0.84115825762055        0.27809340911436
H            2.56528525231921       -0.11664819262160       -1.97335006659143
H            2.59999908209952       -1.74971517163847       -1.29135073105566
H            4.39133052869498        1.48284549909559       -1.46832535265704
H            6.72882324190654        1.78211177240363       -0.87134368671574
H            8.56463705767970        1.89039098240772        0.62249529865172
H            9.05530879332796        1.28745300897778       -0.98481927244535
H           10.00390971241650        0.85430652628760        0.46163193863777
H            7.33238272361808       -4.24038910003244        1.45157006710717
H            5.69568276528717       -3.57998513836331        1.71862835032539
H            6.19080077915573       -4.12843556811974        0.09270224328897
H            4.49166623212558       -2.51285553113479        0.00577750446008
H           -0.35911638464648       -2.04546507255417       -1.03938672234146
H           -0.85171962542461       -1.69494466412600        0.63169375132584
H            0.72973663032168       -2.39963205768825        0.30530661067132
H           -4.47490419496123        3.42407232244035       -0.08840745430807
H           -3.57713533603070        5.07275317132438        1.90803622759557
H           -4.06665850878154        3.54746456685135        2.62554355022135
H           -4.78121164783089        1.52415322841244        1.99137169847959
H           -1.94008064535714        5.05943416097984       -0.16524899710959
H           -2.96465855313937        4.60656181713007       -1.53960779696808
H           -3.57963021643519        5.71069830558317       -0.31643345652172
H           -2.13504730951946        3.03136219156077        3.25408087655326
