72
 energy: 118.130677781348 xtb: 6.6.1 (8d0f1dd)
N           -1.93427825763634        3.26056772976386        2.36418557231117
C           -1.85596936865167        2.27411753716162        1.47035443776854
C           -2.56023112587647        2.43199788926492        0.33049333769519
C           -4.29140551940190        0.74515154515802        1.38159669758733
C           -4.93280480969028        0.44197945120362        0.16028802188001
C           -4.95105490492834       -0.83073699931218       -0.39003422728763
O           -5.59234571106597       -1.17471172450886       -1.56588558168767
C           -6.41372060041733       -0.24451023046786       -2.20679354268284
C           -4.26237445669772       -1.90519733526988        0.21161434836355
O           -4.35991367361076       -3.15160612542762       -0.36096082212112
C           -3.85060044951451       -4.25981838763387        0.36527223728270
C           -3.63686161833013       -1.66113707345039        1.42044455111427
C           -3.62201733969408       -0.34719380262577        1.94718261942234
C           -2.34846116255819        1.84107871418120       -0.99244539026961
C           -1.53989517301099        0.57521174679695       -1.13052058337853
C           -0.17994892622095        0.68292982467369       -0.59719588422723
N            0.58338594784766       -0.36596545611389       -0.20741520493549
C            2.00045037032605       -0.25013872815393        0.01789503710730
C            2.88125873986163       -0.71227516486336       -1.16693831849708
C            4.33313955180624       -0.54221726196552       -0.81560603668805
C            4.97907864736293        0.65941487052211       -1.03235724259277
C            6.30424938322577        0.82768313623579       -0.65821112108189
C            7.01131157508582       -0.19803269714233       -0.05036310430021
O            8.31293287316860       -0.13904929492563        0.36293775352953
C            9.03858339663805        1.04532058830007        0.14681273221140
C            6.36211999875093       -1.42991309750851        0.18796091985689
O            7.10251224237297       -2.39260386425812        0.81549531805556
C            6.49397107196416       -3.63446308149370        1.06252909364104
C            5.04449387554447       -1.57841192058826       -0.20961129642240
C           -0.02030221180130       -1.65662465923615       -0.22241064491362
C           -3.59274085364623        3.53678085924007        0.37860959877333
C           -3.91641741010291        3.88558081525691        1.76543415660796
C           -3.07940017092188        4.77657807532311       -0.27050313068709
H           -5.40119996044481        1.21894155649760       -0.43628771578132
H           -7.22814213069452        0.11079488415577       -1.54966520490565
H           -6.87381558012337       -0.73447508683201       -3.05967143104177
H           -5.79464859059506        0.58730787274662       -2.57092961777732
H           -4.19453497829516       -4.36245999830806        1.38312993006020
H           -4.08139690726933       -5.14853530621722       -0.22818896929504
H           -2.78249304016667       -4.19885115136714        0.46614223310949
H           -3.13870445702585       -2.49734301654437        1.90853161776148
H           -3.05640205812803       -0.18524448717059        2.84463111232313
H           -3.26439510705496        1.76675631296376       -1.57014255788286
H           -1.76013004081031        2.59865145415113       -1.49202767805013
H           -2.04638607430645       -0.23720593839080       -0.62285480166523
H           -1.57449766777843        0.33622481310549       -2.19846639938119
H           -1.16579422265924        1.46825359740494        1.68341597976811
H            0.34305968359646        1.59575056367589       -0.80453992172209
H            2.28112587020175       -0.83686859175468        0.90115175649636
H            2.23208193288602        0.79403895672556        0.21924619122111
H            2.63585235931460       -0.11243554914446       -2.04637861692558
H            2.66375322787545       -1.75831961427580       -1.38519549843632
H            4.45780080871324        1.47752970027137       -1.50583377620994
H            6.77988791424690        1.77683384110736       -0.84816352427940
H            8.59359221155165        1.89538585012520        0.67539432413779
H            9.10669097372899        1.27522725374579       -0.91996814139225
H           10.04264181845455        0.87227529496535        0.54466139446883
H            7.26727500008716       -4.25011886481478        1.52210575578464
H            5.63707530084175       -3.53745037084973        1.73708926528896
H            6.16207208644249       -4.11475325301461        0.13629701845548
H            4.53383122088378       -2.51275510309454       -0.04766574826636
H           -0.29399210919425       -2.02672147018733       -1.22019171500428
H           -0.91114029543357       -1.61561961393131        0.41287886023100
H            0.66931833446601       -2.35588349764462        0.21301495286541
H           -4.48755215867797        3.33889462445688       -0.19580862885457
H           -4.00734420356191        4.96535573597743        1.89155313991362
H           -3.65574280108855        3.56711172134174        2.71600667067054
H           -4.48021051870206        1.99705426902768        1.86141429182661
H           -2.12390291519620        4.97288663111852        0.18268367137539
H           -3.02268549841301        4.63268824284898       -1.32441340810126
H           -3.77420875539188        5.58687272346904       -0.05009863462393
H           -1.74830101419737        3.02154005882682        3.33021534889020
