72
 energy: -99.663870474827 xtb: 6.6.1 (8d0f1dd)
N           -1.93784553044196        3.09070605037931        2.25693284211737
C           -1.61460455684580        2.30057825256178        1.33485358669150
C           -2.66478181767481        2.05899600972522        0.25534132229495
C           -3.23394098228603        0.64919656352315        0.28069505288156
C           -4.27709333309440        0.32312842969465       -0.59796776991819
C           -4.89935695056228       -0.90871046112408       -0.55253461837628
O           -5.92693740524655       -1.31391097375413       -1.35435544752310
C           -6.47277386361309       -0.41325275896256       -2.28354575506933
C           -4.47570144557897       -1.86501645694273        0.39800842556712
O           -5.15427452347174       -3.04807266936888        0.38476985395472
C           -4.84048067441748       -4.00087164459786        1.36626547670583
C           -3.43937947139941       -1.54546059425571        1.25234917596425
C           -2.82707457109048       -0.29824537951737        1.19265161751286
C           -2.07353012412113        2.30864726430138       -1.16213584122411
C           -1.19701738756171        1.15027596615974       -1.70963331052277
C            0.12724147943790        1.04145024050128       -1.06067491215930
N            0.63217357981792       -0.09626879760349       -0.45588473814482
C            2.02862186625793       -0.11813245186973       -0.11994638821704
C            2.96630845230249       -0.57672794832851       -1.26562906906213
C            4.39720210940090       -0.45910190558372       -0.83824847630282
C            5.10631144933900        0.71015149717112       -1.04744132563497
C            6.41944254707601        0.83612522997932       -0.61690336175286
C            7.04686299385672       -0.20770888575244        0.03918007304235
O            8.33064134508492       -0.19731067985183        0.50353826432463
C            9.10457306612111        0.95659565138600        0.30680183269233
C            6.33348452038002       -1.40683239564077        0.26247731634930
O            7.03514190677002       -2.38237209222001        0.90860120088938
C            6.41323532878580       -3.61832904183904        1.14349067206338
C            5.02603978524063       -1.51370298796344       -0.17285486569524
C           -0.01138922363959       -1.36909005610577       -0.65255025373436
C           -3.88453261451724        2.94474338998977        0.68414070749118
C           -4.26287942865108        2.63363823692677        2.20206918177764
C           -3.61087817754249        4.39311056305307        0.18742108058010
H           -4.61773359730851        1.05097814124703       -1.31837797264152
H           -6.89045975771908        0.47361651476319       -1.79428746852189
H           -7.27632237113901       -0.95829599810853       -2.77856336807601
H           -5.73707193111497       -0.10281263947947       -3.03335180469109
H           -4.99029318316905       -3.60374253827967        2.37603301260050
H           -5.52667316682696       -4.82949101248753        1.19978971091706
H           -3.80998297042284       -4.36026466455963        1.26845926048730
H           -3.09445901429338       -2.25336691160164        1.98804402082022
H           -2.02791400274504       -0.07032294746123        1.87915409780930
H           -2.88380583534063        2.45599049636067       -1.87876088941940
H           -1.46502797555602        3.21395355494122       -1.16279595933165
H           -1.74726335589038        0.21248875682900       -1.64451124178001
H           -1.05234235266782        1.35781085668684       -2.78427578240674
H           -0.65337860233469        1.78645502406008        1.28273644693225
H            0.71056301311878        1.93358321733354       -0.92732807624311
H            2.16686863552472       -0.78706552948959        0.73699194601046
H            2.32664950746383        0.88818327850916        0.18347366400768
H            2.77862822936435        0.05411804698031       -2.13630184593074
H            2.73052482669280       -1.60953812348034       -1.52701981845669
H            4.63942062480983        1.53690602161867       -1.56163849306733
H            6.94567497745330        1.75850245144489       -0.80555928505660
H            8.66872609727517        1.82972545955870        0.80498765085277
H            9.23988650106842        1.17806307704489       -0.75761414078277
H           10.07349961721098        0.73625008094875        0.75286658431621
H            7.16030855865779       -4.22837241091801        1.64955478895964
H            5.53478870515804       -3.51559581698951        1.79019628949921
H            6.12001633588691       -4.10950745202619        0.20908383643082
H            4.47354700070441       -2.42660744079550       -0.01051377709322
H           -0.06805398645240       -1.66718558869417       -1.70710047059744
H           -1.02698023265709       -1.33390310392429       -0.25269814903783
H            0.54563358087358       -2.12970009926631       -0.10805821139146
H           -4.77982584778711        2.64527377891730        0.14203052218796
H           -4.43702310893463        3.60019437303566        2.67945543612817
H           -3.45987584014644        2.17657033082272        2.75249782230426
H           -4.98659735009241        1.81424059590194        2.46961490880112
H           -2.59888748039418        4.74833071818604        0.37851542283047
H           -3.73809838000707        4.40829547822051       -0.90171424115187
H           -4.29851712779051        5.12882771691509        0.59308157293087
H           -1.50244179242321        3.10456600426005        3.16726586944542
