  25
        -42.10461025
 C          3.2337170166        1.1296128687        0.0433400597
 N          2.2803281433        0.0531497298        0.0171693819
 C          2.5455692092       -1.2502535632        0.0235413700
 N          1.3888737283       -1.9542555047        0.0176351177
 C          0.3542428228       -1.0673225404        0.0095877685
 C          0.9103970096        0.2062536964        0.0095831050
 C          0.1141481065        1.3944734264       -0.0165954571
 O          0.4960083842        2.5429520946       -0.0644566591
 N         -1.2900487552        1.0832373231        0.0262701732
 C         -2.1453153219        2.1157016007        0.0514708210
 C         -1.8599381222       -0.2213473677        0.0209300983
 O         -3.0487922826       -0.3831025723        0.0333304367
 N         -0.9742179252       -1.2977139084       -0.0036939356
 C         -1.5098074784       -2.6465429618       -0.0284638454
 H          3.6859522704        1.2110102832        1.0331626789
 H          4.0202919533        0.9565170005       -0.6896760193
 H          2.7159083330        2.0613135327       -0.1820482561
 H          3.5253738354       -1.6840600707        0.0313367824
 H         -1.7290712958        3.1073286943        0.0363074419
 H         -3.9470468712        3.4904893482       -1.8784836589
 H         -3.1997370309        1.9145595308        0.0851703228
 H         -1.2206615040       -3.1888760196        0.8720488808
 H         -1.1609501280       -3.1746574096       -0.9159366008
 H         -2.5955548407       -2.5721764968       -0.0628687151
 H          1.3249387110       -2.9620044660        0.0164669285
