72
 energy: -99.339744188904 gnorm: 0.007712977956 xtb: 6.6.1 (8d0f1dd)
N           -1.97305144521763        2.84786905166101        2.28005898625361
C           -1.88362931625338        2.14577735338413        1.25059887985244
C           -2.99732334739034        1.92056735295379        0.26640603285096
C           -3.45633230637210        0.47123998098279        0.33905585747243
C           -4.37564368298692       -0.01011689275628       -0.59558925733324
C           -4.83921317097073       -1.31370544113472       -0.55071951575662
O           -5.74041991502465       -1.85026800560898       -1.40159623143099
C           -6.37079488048967       -1.02008074290732       -2.34804122461984
C           -4.35640336049506       -2.19361982261488        0.45396050260795
O           -4.85283760049340       -3.44824780481450        0.41495791623519
C           -4.48725229612621       -4.35876882308247        1.42475717034339
C           -3.44283960395370       -1.71150913172634        1.37652727716988
C           -3.00349672431191       -0.39405188200537        1.32173914339625
C           -2.39331097865433        2.20721510546187       -1.13335999556818
C           -1.42174615179285        1.12577769782137       -1.63766283713759
C           -0.10727445660219        1.13900919344951       -0.95563137882588
N            0.56920327212906        0.05793859657852       -0.56691176717653
C            1.95562687685713        0.16737960698075       -0.17820287046807
C            2.89751538273731       -0.16234987169838       -1.35197430521503
C            4.33689808614586       -0.00374948136733       -0.93851366318323
C            5.00491967651270        1.14352355323775       -1.18323869379080
C            6.42644380241631        1.36217546253157       -0.78731804220844
C            7.00349090554431        0.20129678683117       -0.03833133719190
O            8.23585256906507        0.23383258505164        0.42429992363614
C            9.08069455274837        1.21087954627324        0.30469632540376
C            6.26592923160406       -0.99064951848126        0.18211191329667
O            6.94718514338080       -1.95589574923972        0.83874758676161
C            6.33251474152690       -3.20623886790342        1.05063012076316
C            4.96246253668715       -1.08737120197658       -0.25805639139289
C           -0.00453374241262       -1.26420560959852       -0.63577461243638
C           -4.23038695728343        2.83947644704104        0.51155344134782
C           -4.91357184511523        2.51416346915222        1.83783367321166
C           -3.89262061482844        4.32685753313850        0.45607083345267
H           -4.74611374092030        0.65123430731020       -1.36095980470725
H           -6.88857215926244       -0.18479944941766       -1.86676862349474
H           -7.09925980161018       -1.65267011584656       -2.85150101812189
H           -5.65872936692050       -0.63476284064407       -3.08524516118626
H           -4.76496619751492       -3.99062108613061        2.41690892320397
H           -5.04134253652466       -5.27049902760246        1.21038990078204
H           -3.41396915513216       -4.57428226987738        1.40215788396814
H           -3.07294962845318       -2.35100852507921        2.16160344238099
H           -2.31885064805486       -0.04684985315437        2.08013806138925
H           -3.20657455439104        2.29253029917137       -1.85325954935110
H           -1.87556537483785        3.16669708372632       -1.10502295657830
H           -1.89878068694010        0.14942222763852       -1.57165552969702
H           -1.24023919250205        1.33603709046214       -2.70036631914222
H           -0.94993649739123        1.64469175935871        0.92519380777662
H            0.42620085167814        2.07707287537992       -0.91734377242546
H            2.15066392634351       -0.51413443946086        0.65365091455117
H            2.15627252107449        1.18584662866565        0.16137633743042
H            2.67227114129017        0.51282505528725       -2.17888998361618
H            2.71745459937485       -1.18595536993563       -1.68381019395324
H            4.52948836111121        1.96078308428018       -1.70319504753862
H            7.02996170756816        1.53781729433420       -1.69656666816477
H            6.50841147072821        2.28137612467244       -0.19796574968238
H            8.85993524756454        2.12891918112639       -0.20992435036667
H           10.03667122153983        1.04717549379592        0.76376089145602
H            7.08323375446834       -3.81977956907284        1.54475303215930
H            5.45518190642368       -3.11747842215926        1.69857578017313
H            6.04631738980956       -3.67569792818195        0.10486525351378
H            4.39926729202481       -1.99225108493940       -0.10437745796317
H           -0.15222993940495       -1.58094119314326       -1.67086411523862
H           -0.96879984795697       -1.28733778013057       -0.12189463417069
H            0.66339476324467       -1.97061544851003       -0.14941543516826
H           -4.94211275978536        2.62664531367409       -0.29409482677203
H           -4.24608904202559        2.73620189541930        2.66393800859604
H           -5.19855316431203        1.46598921385889        1.88593061483190
H           -5.81079202060394        3.11838849628875        1.94355297156130
H           -3.16335415995502        4.57756165424524        1.22004360624502
H           -3.50878191196479        4.61987618625740       -0.51764678819841
H           -4.79411062929877        4.90377723698752        0.64518120279441
H           -1.14359192205571        2.94880494823567        2.85692873500644
