72
 energy: -99.467218678358 gnorm: 0.008067421702 xtb: 6.6.1 (8d0f1dd)
N           -1.60444644585872        0.22675419458161        1.19738225344781
C           -1.38557742118888        1.36402611176914        0.31072232287847
C           -2.74003186818417        1.73236398912263       -0.35678172459075
C           -3.52670848206510        0.46753982996897       -0.09053208336058
C           -4.73840312858281        0.04967172358774       -0.62023836359289
C           -5.27290825925659       -1.16414158410730       -0.20766816514743
O           -6.42868017247472       -1.69917135373257       -0.66348296425888
C           -7.18459920048287       -0.97962050874786       -1.60765242291167
C           -4.59765199202393       -1.95501065448743        0.76121309372643
O           -5.21361126943256       -3.11285854281564        1.08652001884291
C           -4.63119689518897       -3.94179477416195        2.06322851495939
C           -3.38602377578537       -1.52579216863008        1.28814877916552
C           -2.87393523799407       -0.31869106031562        0.84335093808053
C           -2.40021450805098        1.88084519034158       -1.84442646676164
C           -1.38713080658098        0.76686210842411       -2.08954115611519
C           -0.46827218084341        0.86036394566226       -0.86981418576165
N            0.16757388629203       -0.40683105283062       -0.41405233099070
C            1.58545567499960       -0.23753149414158       -0.02027634803358
C            2.55331260569061       -0.12250369711780       -1.19883615505626
C            3.93612237706763        0.15391406621661       -0.66576525099495
C            4.41818292267220        1.44388857503399       -0.57015073854423
C            5.68431837832526        1.68782448405911       -0.05443587639901
C            6.48150294284538        0.64276800186887        0.38199496583724
O            7.72518086775138        0.76295855584265        0.89427920861843
C            8.30096614228238        2.04467918208882        0.98566232071075
C            5.98786367349757       -0.68510263194368        0.29767553028211
O            6.82836203787013       -1.64358022729080        0.75118205382774
C            6.43404868720563       -2.99070702344896        0.66858891666315
C            4.72551935495391       -0.90706238421478       -0.22240868637362
C           -0.03743940285019       -1.60335783151984       -1.24060851818077
C           -3.47266356038236        2.95321065851579        0.24602667216771
C           -3.70711941828441        2.77405028687318        1.74704851952268
C           -2.76444540752701        4.28386967287440       -0.00557051456414
H           -5.25285676625781        0.66384355391873       -1.33990014704719
H           -7.50820034388230       -0.01247116170151       -1.21079156160841
H           -8.05817852644714       -1.59542145691975       -1.81103506501795
H           -6.62670076437737       -0.82629134455405       -2.53732263812999
H           -4.55072790692191       -3.43156638191933        3.02838647417527
H           -5.30180750648427       -4.79278672974169        2.16204701965157
H           -3.64235279556447       -4.29732208857876        1.75379515088299
H           -2.85590898179919       -2.10266904418628        2.02730547658128
H           -1.45775692712708        0.38121900974439        2.19227280760437
H           -3.28074184411388        1.77953682435364       -2.47307172987692
H           -1.94241585969279        2.84905829196414       -2.03700095066154
H           -1.92280164710841       -0.17899684867603       -2.11261979936722
H           -0.84787910620668        0.89375452661318       -3.02621283180954
H           -0.91965936219158        2.19687142469769        0.83494772808975
H            0.31324059122941        1.59393581804674       -1.06971975113762
H            1.87052128871672       -1.09428092387839        0.59471986778687
H            1.66239922719004        0.65789676388212        0.60016956044041
H            2.24752281174303        0.68772523447425       -1.86165921370717
H            2.56468827338837       -1.05131763179304       -1.76898310769430
H            3.81987518808834        2.27596322102253       -0.91034083071277
H            6.04001848856427        2.70346882920497       -0.00410006718588
H            7.72229458450918        2.69895886750030        1.64531214657044
H            8.39832644636786        2.51207824347823        0.00090887171040
H            9.29083075138471        1.88977928747086        1.41030952124748
H            7.27209569214800       -3.56512393443743        1.05842190747083
H            5.54680117507414       -3.18930249792933        1.27992926994307
H            6.24061994450115       -3.29200181009085       -0.36605793616072
H            4.34438648465536       -1.91313134503046       -0.30531598411853
H            0.26364062790174       -1.42969383502556       -2.27094882144830
H           -1.08343388493740       -1.90028734625450       -1.21367256755944
H            0.55534525462958       -2.41835134587104       -0.82950313683503
H           -4.45116902102574        2.99153264031970       -0.24336305272505
H           -2.77025015843222        2.82081196257500        2.29892444929025
H           -4.19638422972003        1.82643896020913        1.95872920490638
H           -4.34703186998799        3.57144150683521        2.11446533756604
H           -1.73503007037765        4.26295598353199        0.34548616103917
H           -2.77011520074294        4.55222174991151       -1.05776087152065
H           -3.28408429522797        5.07069328127528        0.53456172094781
H           -0.44795428287968       -0.52686431925323        0.49917007393962
