25
 energy: 36.085358666298 xtb: 6.6.1 (8d0f1dd)
C            3.14791518899505        1.19314808703711        0.14768482553182
N            2.26612131481117        0.05180572780317        0.07351260212276
C            2.56809667722087       -1.31215569789709        0.06775120168082
N            1.34762370736155       -1.99276783248874        0.08162015039527
C            0.31456092556112       -1.10927849901406        0.00487716508768
C            0.87680761773475        0.16210671202351        0.01868950214588
C            0.10921071551721        1.34440409286633       -0.04265190178287
O            0.53595147927026        2.50378234063282       -0.07714205868415
N           -1.27878043524060        1.10696853673529        0.04948361368207
C           -2.08274253124680        2.34707823165898        0.06468249140645
C           -1.93792481921929       -0.06199528067968       -0.05964105890153
O           -3.14504739852863        0.07774223966745       -0.14560822725917
N           -1.05827353487957       -1.30794968786814       -0.08690316381142
C           -1.40631908264819       -2.71305815209452       -0.19759192077518
H            4.00774093652271        0.92770688421750        0.77274004415249
H            3.51284896438121        1.51227830227130       -0.82022745700309
H            2.56548413892202        2.03652604632996        0.52903062882367
H            3.50538662576812       -1.75799792926136        0.33700704269593
H           -1.48357693194682        2.90698054067514       -0.53266960098689
H           -3.05209172511695        2.55877617304654       -0.18093137949005
H           -2.16123767454776        2.74868901451954        0.99212344881624
H           -1.05317548969745       -3.28597459908875        0.67631691485732
H           -0.92682197720308       -3.20018172131796       -1.05162437351072
H           -2.48302425168503       -2.82146471959905       -0.21580254137013
H            1.30338492490993       -3.00095000089435        0.07861286440147
