25
 energy: 81.819699476648 xtb: 6.6.1 (8d0f1dd)
C            3.04055633120747        1.11928586660961        0.21103908316501
N            2.24597881843466       -0.06073937049042        0.10677447176458
C            2.69431741876526       -1.34653596861770        0.17089766970885
N            1.60688979683865       -2.18652914491692        0.06405897449253
C            0.48231224262943       -1.42709578975434       -0.06746896695616
C            0.87197972860257       -0.09573627292813       -0.01800032732130
C           -0.08239056106194        0.97808047293742       -0.07755985165951
O            0.16837539166578        2.18609150026978       -0.08334672389139
N           -1.39440516485030        0.46868667813970       -0.14554563788168
C           -2.70108677654715        3.44158207349394        0.13110126890610
C           -1.82450525935300       -0.80297555546168       -0.21365725442915
O           -3.18337100207262        2.31877896797894       -0.02868737292984
N           -0.80632791915948       -1.80044973479714       -0.20686988766780
C           -1.17943208304790       -3.19278150811147       -0.29654477050766
H            3.45280781701581        1.22272455367671        1.21603028658204
H            3.86095670969728        1.12249426966567       -0.50654909633322
H            2.40548506459569        1.96596606910457       -0.00660584928830
H            3.70946289228611       -1.63928506697956        0.24161144683352
H           -2.22814008646940        1.21759655093484       -0.18625450029646
H           -3.34565686934495        4.25246912233461        0.44081940545731
H           -1.65451848424132        3.71974681595552       -0.10709127756662
H           -0.87263102904621       -3.74601863160540        0.59438268105451
H           -0.73431258313200       -3.66241355936306       -1.18332413642894
H           -2.26210793215016       -3.26233744391119       -0.37188849902825
H            1.68944277941890       -3.18686940933978        0.04432863440057
