25
 energy: 125.442810994614 xtb: 6.6.1 (8d0f1dd)
C            3.09879110650352        1.12754977752574        0.25040102495618
N            2.23403677713039       -0.02536488286998        0.14772335875707
C            2.56492597938797       -1.32088944414088        0.10846023085365
N            1.41664522922137       -2.06827428385218        0.07479928633050
C            0.31481205040125       -1.22860112885178       -0.03164193596403
C            0.87720570715152        0.07376270326423        0.02559888805036
C            0.09211659837314        1.26559056569169        0.03354922684965
O            0.53025624569932        2.40359875543990       -0.08322496224775
N           -1.22518481446638        1.02048113560916        0.19011791053976
C           -2.40280890186150        2.90491689624198       -0.00931007793437
C           -2.10529722898652        0.13419180226532       -0.09872407116304
O           -3.22548421379582        0.61122596395281       -0.22689141695325
N           -0.95348527833316       -1.50666295146783       -0.17342250818188
C           -1.33235344571166       -2.86145511900258       -0.29114978090659
H            3.87523875854776        0.98948077233725        0.99399556488630
H            3.47424896173093        1.39445527671258       -0.73490153540040
H            2.51541753241962        1.93734798296192        0.65481157092243
H            3.46148635663785       -1.69262056098304        0.56937435826895
H           -2.86973844302342        2.19537963641407       -0.65117487360367
H           -2.58412095900089        2.86373838556299        0.99125360783441
H           -1.42500769505577        3.03913351876546       -0.21626388207404
H           -1.00615206335189       -3.40307550819449        0.59828195770258
H           -0.81208909927014       -3.27182541966298       -1.16079076153058
H           -2.41923511659959       -2.88730011827951       -0.43773292717232
H            1.40991165830023       -3.06930751925191        0.01511651699589
