25
 energy: 12.450152994296 xtb: 6.6.1 (8d0f1dd)
C            3.16309794402610        1.21913071820978        0.11052127375775
N            2.28367289069933        0.08264490427675        0.03171721206858
C            2.58001166306234       -1.28565009060046        0.05532010369571
N            1.35972805228663       -1.96409935775639        0.05514656641240
C            0.33796602853302       -1.08515016918691       -0.00224984730249
C            0.88822474928347        0.19128088905456       -0.03558811876106
C            0.09321473410918        1.34314982337778       -0.11171634334412
O            0.47442049414882        2.52223300270069       -0.15338234473187
N           -1.29951655889830        1.07257201878488       -0.05268235093706
C           -2.10804333360015        2.31219707398638        0.00369787499671
C           -1.89447919532966       -0.13040475835892       -0.07106163900854
O           -3.10925208286243       -0.11021847189471       -0.10923466952705
N           -1.02181429987715       -1.30495425863131       -0.10474784944591
C           -1.40805742466133       -2.71196329839290       -0.11253165426172
H            3.87437755048365        1.10848267338031        0.92290228269441
H            3.74643888456480        1.37202365481919       -0.78689301836289
H            2.53665793642845        2.10008317733822        0.24180496746174
H            3.53383138627665       -1.76086286149919        0.20132522488900
H           -1.33630973339207        2.97678212899271       -0.19594912786509
H           -2.94827828584820        2.50175130627807       -0.60061393874538
H           -2.47664452757846        2.49833840108300        0.99141500161967
H           -1.02803273923829       -3.24262826357318        0.77818309200959
H           -0.98177387849312       -3.23686377825320       -0.97456330149891
H           -2.49272308084803       -2.77727537349972       -0.12318280317674
H            1.26036537325516       -2.96565303248667        0.08566388188484
