25
 energy: 89.081511975873 xtb: 6.6.1 (8d0f1dd)
C            3.03776131097508        1.11953768633603        0.20049016766655
N            2.24779755030545       -0.06648743095742        0.09060074823760
C            2.67687311189372       -1.34851626375800        0.18021591895130
N            1.58931258604494       -2.18648573191726        0.08317816382838
C            0.46244394711716       -1.42491275029407       -0.06533679318916
C            0.87092023357880       -0.09654581324663       -0.01647306171474
C           -0.05721922479305        0.99428923438592       -0.07455109212018
O            0.21914489806743        2.19676757327802       -0.09093088549367
N           -1.36484086110198        0.50905504125401       -0.12919108655888
C           -2.66838377610779        3.33356715171971        0.11418255052742
C           -1.83835164526122       -0.74890013930745       -0.20336251850459
O           -3.19418724050342        2.21187846700797       -0.04353258784435
N           -0.83389410626562       -1.77859120552867       -0.20219920220411
C           -1.19566619137825       -3.17014376398590       -0.28915647679970
H            3.37238636110499        1.25826283087554        1.21120281957637
H            3.90698797909836        1.09694358061692       -0.42932477841978
H            2.43142047360208        1.95227765458439       -0.10702634373747
H            3.67954905612426       -1.66398759636540        0.25214413488493
H           -2.24609086387657        1.28560691773542       -0.22850010715268
H           -3.27105634255752        4.12104670098221        0.49432077703402
H           -1.61538311716850        3.61351522429499       -0.18762606375690
H           -0.84520638614800       -3.73064798127194        0.59279453172889
H           -0.73771784348032       -3.61974613741772       -1.17913260248898
H           -2.28127521951743       -3.26988107248475       -0.36516596667079
H            1.69869851513139       -3.18196107623029        0.02391904435926
