25
 energy: 101.313070065040 xtb: 6.6.1 (8d0f1dd)
C            3.02961211146674        1.12105057230998        0.20255114647909
N            2.24796544826963       -0.07478414690145        0.07854979687760
C            2.65507172680651       -1.34941880494404        0.17245847855393
N            1.56955002633677       -2.18100646306504        0.09210150865884
C            0.43982015748017       -1.41394064408883       -0.06919901608882
C            0.87634191987688       -0.09193964624225       -0.01965898268352
C           -0.03142386309727        1.00329730929603       -0.08070224210490
O            0.26693773866902        2.19930301240739       -0.11987800255270
N           -1.32198836172518        0.54342350119579       -0.09905592791022
C           -2.62282400167432        3.26001873574651        0.11300469052400
C           -1.84010548361743       -0.67521368931706       -0.18910114028588
O           -3.20742577711150        2.10890722651153       -0.06221291805973
N           -0.84840918286178       -1.75417243096103       -0.20583894077551
C           -1.21348432949481       -3.13898515828643       -0.28907615904844
H            3.30001690034798        1.27692234894885        1.22393616162063
H            3.94135391392398        1.08118505583313       -0.35900355197304
H            2.41938986897195        1.97500451661917       -0.06832248088728
H            3.64771752952214       -1.67946881925434        0.29779128696004
H           -2.35501082164206        1.47726512573158       -0.24362801693688
H           -3.20134251293844        4.00144519490566        0.56227575692558
H           -1.58585960544409        3.48253115686546       -0.25496385078643
H           -0.85309791875649       -3.68870349869835        0.59492344030392
H           -0.74663570295365       -3.58506837489482       -1.17564537811156
H           -2.30005347106463       -3.22964370485529       -0.36668277532097
H            1.66595825265829       -3.17479532474127        0.01258604719348
