25
 energy: 75.625301505439 xtb: 6.6.1 (8d0f1dd)
C            3.04800824255026        1.12893789488812        0.22104492413846
N            2.24790042690896       -0.05113481541257        0.12569623610404
C            2.69950446503543       -1.34313678276731        0.17674141743220
N            1.61620485772410       -2.18476805374606        0.05148473172957
C            0.49957571644470       -1.42685348779846       -0.07571831314938
C            0.87639975145306       -0.09379444685961       -0.02618395074617
C           -0.09565785128521        0.95615772812591       -0.07749475986186
O            0.11275752301483        2.16927032309796       -0.06315848485808
N           -1.38616605844381        0.42054470896769       -0.14908488777552
C           -2.75577294543609        3.57428624220594        0.10198681034682
C           -1.78509990994071       -0.84669690072692       -0.22753681109739
O           -3.22785755571105        2.45926686928926       -0.00137087506749
N           -0.79846103969260       -1.79872449531759       -0.21045863153623
C           -1.18108479756494       -3.18739521397227       -0.30074562826290
H            3.58019655722076        1.15838304347747        1.17467803280353
H            3.78052285356184        1.16839430352224       -0.58869594700625
H            2.38650693708406        1.99055481780726        0.14926634260055
H            3.70769398435819       -1.64435240494374        0.30090708412764
H           -2.14521558538058        1.12620621691467       -0.14805232160964
H           -3.39089823335255        4.43953449941266        0.32717633686492
H           -1.68476024524452        3.77336048557922       -0.01918084564689
H           -0.86446347113608       -3.73336201033305        0.59114152342617
H           -0.74637335305737       -3.65345971167940       -1.18857836701460
H           -2.26622861879998       -3.22550229017194       -0.37454748861117
H            1.68498265466131       -3.18668773081464        0.05771778486439
