25
 energy: 134.432533025629 xtb: 6.6.1 (8d0f1dd)
C            3.06307336665884        1.12568722677749        0.21736027473675
N            2.23973288920974       -0.05344860795265        0.09506429773738
C            2.60749344353695       -1.34053714008731        0.14018584838119
N            1.49954919922790       -2.13932499552070        0.09628834170593
C            0.39066970164059       -1.33694575265343       -0.05442952024334
C            0.87603007706384       -0.03002629010946        0.00209821185753
C            0.00881805081592        1.09956226557034       -0.04693283207106
O            0.39984384572451        2.26161295484374       -0.16258447623841
N           -1.27865476468107        0.69724213503781       -0.01140301761238
C           -2.52813623828051        3.06952341205151        0.05165750910744
C           -1.85287967068264       -0.47660133905759       -0.15785926548568
O           -3.29367869595703        1.90096011260120       -0.07477226691079
N           -0.90126156136921       -1.63249107049191       -0.19542018956855
C           -1.26558601843997       -3.01107852444987       -0.28891552210549
H            3.53811686250212        1.16551663553037        1.19304997714627
H            3.80497915028308        1.14647002774101       -0.59182951493099
H            2.42433057045661        2.01076955861517        0.22222156172173
H            3.55235700315396       -1.71341854788077        0.43132098011957
H           -2.59964805462738        1.64533085496330       -0.62273474697025
H           -2.92058380332106        3.63328127817341        0.79855185457671
H           -1.61638340602791        3.15926200208060       -0.57075291539241
H           -0.89198128144381       -3.55078273824049        0.59019306853040
H           -0.77465679340413       -3.44110539994751       -1.16880854718463
H           -2.35082376709898       -3.08262388760141       -0.37952093309189
H            1.55233183146755       -3.13607596466716        0.00537254266352
