25
 energy: 123.130945458673 xtb: 6.6.1 (8d0f1dd)
C            3.12246372623357        1.17287803679171        0.19348702549001
N            2.25667951499688        0.01203386448789        0.10334917978817
C            2.55744913787745       -1.30117540323138        0.08698002640521
N            1.37554688329385       -2.01659385745847        0.04236690337231
C            0.29709475638407       -1.15137223988598       -0.02698254215613
C            0.89290651365724        0.12611389697645        0.01203664108443
C            0.12853730979138        1.33648249479378        0.03417773757492
O            0.57873981306142        2.47305387205368        0.01908327336888
N           -1.20062136575603        1.06628132443360        0.16365450788537
C           -2.29707546372266        2.95852855031655       -0.06694231383889
C           -2.03372284312367        0.12555146643864       -0.06785809209015
O           -3.18948501452278        0.34018000474139       -0.17506356468363
N           -1.00919580355077       -1.39572479322309       -0.13316529786869
C           -1.39463657627647       -2.75833187317713       -0.27303762751538
H            4.01432395896936        0.91415493387733        0.76616518374966
H            3.35669347072546        1.56906950758910       -0.79573400423793
H            2.58247598206837        1.97180396319293        0.72049198284212
H            3.47425477883806       -1.72009135215045        0.45989626656235
H           -2.17926252635970        2.32747126993426       -0.81297387225490
H           -2.99030722708094        2.63854303793360        0.58021594962999
H           -1.61876804779714        2.88849051169859        0.68557096477067
H           -1.09188776513656       -3.33633536391301        0.60325611450511
H           -0.89611406972846       -3.18810633026828       -1.14395462831470
H           -2.47333457051783       -2.83199533997617       -0.34985583940394
H            1.33182278653761       -3.02258353665969        0.10077127060876
