25
 energy: -0.456724102534 xtb: 6.6.1 (8d0f1dd)
C            3.19037677433925        1.22469857460221        0.09103519276246
N            2.29966081657313        0.10104704842535        0.02893447645613
C            2.59098919182229       -1.25809837480842        0.04645825528681
N            1.38952675714130       -1.94596407945933        0.02124166567321
C            0.36346756883470       -1.07236785578295       -0.02923420061345
C            0.89975071399015        0.21169780064148       -0.02182918688757
C            0.08643422673942        1.35126289339009       -0.06602934698236
O            0.45372144241950        2.53531907676217       -0.08455706904416
N           -1.32292115290060        1.03382170821304       -0.10618413436878
C           -2.13981819271632        2.25147921908417       -0.02227369175626
C           -1.88906849323812       -0.19790991385407       -0.08488186512142
O           -3.09517981365868       -0.31257296483028       -0.07106069418784
N           -0.98841139073140       -1.31234347981171       -0.07368944951062
C           -1.43354081033107       -2.68916334850843       -0.08013676520581
H            3.73928128127465        1.28338503564024        1.03262403075685
H            3.92181431618264        1.22723101248087       -0.71955404962518
H            2.54532820800773        2.11006721924013        0.00947742239512
H            3.55712820931395       -1.71990394305439        0.10875449223789
H           -1.34114227708462        2.99589966781281       -0.06893718043791
H           -2.89366566085952        2.39470328130608       -0.80675970973578
H           -2.67097682350720        2.33004491250132        0.93682017699373
H           -1.08268046804698       -3.22321930320357        0.81059691403024
H           -1.05851066696598       -3.21124162927889       -0.96395542966448
H           -2.52280348705829       -2.66873177436942       -0.09668306659308
H            1.31119578056242       -2.95006685444713        0.02716965012926
