25
 energy: 23.370098879755 xtb: 6.6.1 (8d0f1dd)
C            3.15772273147970        1.20674864724525        0.12883589088861
N            2.27367507488281        0.07121657300702        0.04525191141428
C            2.56943050486353       -1.29516961721729        0.05988602800648
N            1.34873071093941       -1.97349913425875        0.06799584088250
C            0.32256291070964       -1.09277547357251       -0.00462081336806
C            0.88151098990006        0.17937688967137       -0.01595872012569
C            0.10235913602955        1.34557792873783       -0.08779614200999
O            0.50721825496706        2.51474943335551       -0.12513353930084
N           -1.28447823686843        1.08988898347751        0.00711170115077
C           -2.09416490989351        2.32357687547101        0.03208933135336
C           -1.91676170590926       -0.09637324671462       -0.06642230649978
O           -3.12689418532362       -0.00941153684773       -0.14261280167572
N           -1.04757870086809       -1.30638523575371       -0.08879431774430
C           -1.40895951275950       -2.71744206978546       -0.14508470536247
H            3.94784337519436        0.99793257249453        0.84807166297101
H            3.63780329119787        1.44548992415543       -0.80882884221408
H            2.55838578015732        2.07845366197760        0.39178279842724
H            3.51705625437777       -1.75417826975715        0.26616062713153
H           -1.38412560114162        2.96166990363947       -0.30405583146256
H           -2.99104136683416        2.52627719927612       -0.42782337697675
H           -2.33982423492663        2.59439078500127        1.01006668053831
H           -1.03772897804211       -3.25983013332649        0.74105414182524
H           -0.94792133941309       -3.22860260814283       -0.99603191056997
H           -2.48844711306316       -2.82023571519142       -0.15389736135091
H            1.26381795816061       -2.97647591582957        0.08325278960143
