25
 energy: 108.973451692936 xtb: 6.6.1 (8d0f1dd)
C            3.02586054393474        1.12509466450161        0.21058974013404
N            2.23960031650367       -0.07061299499037        0.07958619864091
C            2.63450263565213       -1.34646550150045        0.16359653088455
N            1.54515315917297       -2.16982310228032        0.09718418909404
C            0.41997089062528       -1.39234067314873       -0.06519658404665
C            0.87178609031953       -0.07562040550388       -0.01355281920473
C           -0.01831737951200        1.03187262236476       -0.07202368473304
O            0.31128174802236        2.21608081917169       -0.13967983709365
N           -1.30552052712575        0.59000677351728       -0.06428914521513
C           -2.57366343889250        3.19893371162837        0.11323604764301
C           -1.84617281645780       -0.61173348462352       -0.17398881966780
O           -3.25936982877360        2.06172308370621       -0.06053071602014
N           -0.86739346402554       -1.71776699551172       -0.20257014854582
C           -1.23079089075892       -3.09873831585922       -0.28988881622093
H            3.33615872652485        1.24163585392097        1.23136217344445
H            3.88857102617538        1.10910390924781       -0.43318955119392
H            2.39777702549328        1.99563899472527        0.02686773092494
H            3.61362369176993       -1.69492359538362        0.33932645623179
H           -2.47432669026237        1.51260630897242       -0.27175274963035
H           -3.11736448436940        3.89642149335322        0.63543329540974
H           -1.57421715578771        3.36271211725469       -0.35116992730649
H           -0.86094827521253       -3.64338634463813        0.59169255788834
H           -0.75661647038145       -3.53691115617117       -1.17605389617762
H           -2.31649557384235       -3.18164888052075       -0.36972997549985
H            1.62978160699294       -3.16358983473049        0.00595691542916
