25
 energy: 76.807377490064 xtb: 6.6.1 (8d0f1dd)
C            3.04534521729607        1.13199101853074        0.21457030302755
N            2.24640479598737       -0.04772554691068        0.12198765851497
C            2.70588359530647       -1.33916601782824        0.17516555793953
N            1.61871257598041       -2.18194141169391        0.04454288841466
C            0.49631155271736       -1.42609262322069       -0.07624341943925
C            0.87292325782579       -0.08946231420971       -0.02480434409772
C           -0.09296641640237        0.96293590495217       -0.08126275575579
O            0.11953190921219        2.17822301202356       -0.07004255770312
N           -1.39166533404088        0.42801955435865       -0.15298155249722
C           -2.71838018342769        3.53758117014943        0.13287379071444
C           -1.81069456157535       -0.83600722062359       -0.22923374997518
O           -3.17277471861513        2.41648225339759        0.01505654467318
N           -0.79842170272957       -1.80262170175858       -0.21622534780128
C           -1.18384983816055       -3.19369587138000       -0.29605670865694
H            3.54757343140499        1.17561689563377        1.19262378750981
H            3.80165687799383        1.15148110649586       -0.58273193601790
H            2.38405129567727        1.99075645491702        0.08266909350836
H            3.71588576246425       -1.63913277420076        0.29496532059487
H           -2.13542623907981        1.16069192398296       -0.15073218811553
H           -3.37640656937604        4.37072110723763        0.36271664344396
H           -1.66353027146647        3.76555235554363       -0.05383774785512
H           -0.90683284675849       -3.73639791463609        0.61047364550743
H           -0.74577026612496       -3.67897867186748       -1.17090912237574
H           -2.26832712657334       -3.22129335623977       -0.38233525911619
H            1.70370131820932       -3.18362804741262        0.05003097456025
