25
 energy: -42.119198421563 gnorm: 0.008750936746 xtb: 6.6.1 (8d0f1dd)
C            2.36334748219351        1.66399805906841        0.15092343630186
N            1.53298993317398        0.49121898083174        0.05250245509489
C            1.95481009389785       -0.61142695085502       -0.47903326673212
N            1.23215983944586       -1.74322816720084       -0.54910167159934
C           -0.00607262847875       -1.90935798746364        0.02314880891284
C           -0.65682967309748       -0.73709127465267        0.59776552691408
C            0.17633835519742        0.61061495263926        0.79805661423788
O            0.30371269558639        1.11344327379899        1.92266688532552
N           -0.76844781188483        1.22568331575594       -0.20784895829577
C           -1.05866488576791        2.60267335225596       -0.48320136190740
C           -1.52742226278917        0.13024864210059       -0.37822886155268
O           -2.47842698256006       -0.14370792280807       -1.03861604023293
N           -0.61176423358938       -3.03352248594653       -0.16555943092128
C           -1.42741383509817       -3.88089447108751        0.29441861308018
H            2.22864193661948        2.08556038034619        1.14873972144246
H            3.40959941755524        1.42076848294523       -0.01400824186634
H            2.03693682568043        2.40381778040818       -0.58158405343118
H            2.95538378226030       -0.65104288393439       -0.89468169961625
H           -0.38026725179015        2.99239235342678       -1.24585142162541
H           -2.08408714884512        2.68041039985123       -0.84106321085837
H           -0.94105290337939        3.17984902626674        0.43520802175286
H           -1.53759834051397       -4.08470133022783        1.35728027119398
H           -1.99926523213011       -4.47121609710835       -0.40465528524702
H           -1.20449363516818       -0.95689509339709        1.51961447033464
H            1.64831797758232       -2.55935579363255       -0.98571970272067
