  25
        -42.18378595
 C          3.0518302888       -0.1349344184        0.8689993928
 N          2.2954365202        0.3943484672       -0.2718515390
 C          2.6925601356       -1.0485515622       -0.2435142742
 N          1.4962581572       -1.7892603177       -0.1357079981
 C          0.4375677761       -0.9143799364       -0.0691307315
 C          0.8719875496        0.3849850437       -0.1596771375
 C         -0.0171217502        1.5165854553       -0.1751281975
 O          0.3227406427        2.6692229931       -0.2939436452
 N         -1.3463747007        1.1080585342       -0.0297045350
 C         -2.3681310343        2.1474096544       -0.0014351601
 C         -1.8205858422       -0.1790174912        0.0908112309
 O         -2.9836396000       -0.4379767125        0.2142212547
 N         -0.8574207045       -1.2240707690        0.0572430206
 C         -1.3190393471       -2.5948194017        0.1531620425
 H          4.0767972130        0.1951934456        0.9633768015
 H          2.7168416049        1.1134318363       -0.8719568244
 H          2.4987384200       -0.1854553267        1.7972277048
 H          3.4537189934       -1.4265021145       -0.9163698453
 H         -1.8651309411        3.1110360198       -0.0118094897
 H         -3.0177961860        2.0533932040       -0.8709375095
 H         -2.9736034743        2.0411169484        0.8973833271
 H         -0.8003467820       -3.1129899035        0.9586551535
 H         -1.1671158224       -3.1200967380       -0.7906313375
 H         -2.3866952846       -2.5639337338        0.3684733576
 H          1.4154378841       -2.7225711355       -0.5071566524
