25
 energy: 49.299966210797 xtb: 6.6.1 (8d0f1dd)
C            3.25538859664436        1.39308405946144        0.14931710352226
N            2.46353113061282        0.15417767746419        0.03471722414349
C            2.82138048623835       -1.20085056824176        0.03236474916248
N            1.66807964950179       -1.96506752657234        0.01389951572986
C            0.53052845870267       -1.21740880020047       -0.03020250209825
C            1.04529518838452        0.12549387881546       -0.03375557182170
C            0.24399402722482        1.28433065741257       -0.07483564846163
O            0.56322285440468        2.48235802150626       -0.09147317435436
N           -1.12085597742048        0.91476516134549       -0.07521990433743
C           -2.13099354852560        1.95792424169005       -0.05029743364257
C           -1.66827509801480       -0.31106409935622       -0.07901697897294
O           -2.90083582768080       -0.28648554059854       -0.08168423692714
N           -0.92026240415282       -1.53783579190455       -0.07348064083264
C           -2.13693391213951       -2.64115087347564       -0.06555121674105
H            3.92539780449904        1.43487528141374        1.01822606637306
H            3.87184556154415        1.62283533308060       -0.73513590345821
H            2.55902437593885        2.23452479751516        0.30987214016610
H            3.80929216947437       -1.62155341258347        0.08012682245865
H           -1.52555111751022        2.86949218133892       -0.02878478621383
H           -2.77540661506122        1.84510926730648       -0.92967365805524
H           -2.77749840241405        1.80535845625626        0.82337636059861
H           -2.23068175491440       -3.24184465978511        0.82740430652724
H           -2.21611705680840       -3.23060875685512       -0.96532260874931
H           -2.98618888082959       -1.96954243970789       -0.05952581746023
H            1.66055621061939       -2.97281179388468        0.03264160125199
