25
 energy: 64.538546850137 xtb: 6.6.1 (8d0f1dd)
C            3.26011807148012        1.45953946160859        0.16429919175579
N            2.52181343845180        0.18874030155526        0.02319104798122
C            2.89758140554783       -1.11606954963601        0.03483718348925
N            1.78641420617642       -1.92614962977615        0.01329782581190
C            0.63487345577255       -1.15704391891317       -0.05436725185051
C            1.14114143289037        0.16394839764692       -0.07473501363249
C            0.26713063800148        1.30627567772255       -0.11602131060122
O            0.61096090843451        2.48508246561919       -0.13660092907948
N           -1.04633766725023        0.91844490492964       -0.08988959546710
C           -2.11983787228942        1.89756210072074       -0.04986662208385
C           -1.54090287879108       -0.38899182738228       -0.08601661362085
O           -2.76702159592938       -0.36274639696658       -0.07604323324510
N           -0.67689816199281       -1.48938492921913       -0.08385538825530
C           -2.73668921969473       -2.90016466366507       -0.06890619537045
H            4.01870627352743        1.43731112828052        0.95073729586147
H            3.75222697749923        1.78036307585328       -0.76568993604405
H            2.55018051296254        2.25216278958698        0.46185414425350
H            3.89569188144561       -1.52356636653998        0.09734430212435
H           -1.58756713854030        2.84744791576836       -0.02267009861060
H           -2.77204374258497        1.75602024445319       -0.92182040967205
H           -2.76169661870642        1.70229951567071        0.82153627622966
H           -2.61552976311572       -3.37765697414615        0.85732054870973
H           -2.59140681935120       -3.37461716745568       -0.99161847185154
H           -3.16223735798064       -1.93896587713561       -0.06898439705746
H            1.77872280869830       -2.94071738572800        0.04314886389092
