25
 energy: 49.266171979608 xtb: 6.6.1 (8d0f1dd)
C            3.37791456784877        1.64473644354624        0.14115987849189
N            2.67639426249191        0.36090005196692        0.01275830253391
C            3.09677363134373       -0.90824400025545        0.06684720118556
N            2.05677579310708       -1.78914722291003        0.03326082624612
C            0.87508167012962       -1.06014041298505       -0.04474069456898
C            1.31465495158314        0.28132448208853       -0.08037382621540
C            0.38430605565490        1.36063314544828       -0.14204836777145
O            0.69042808406079        2.54608476390161       -0.19812293340932
N           -0.89518827777105        0.87818563366252       -0.12219720645715
C           -2.00477636445002        1.81767163421085       -0.05575439867366
C           -1.32362715639812       -0.47182318366150       -0.06412999051444
O           -2.52918703179911       -0.55968538247037       -0.00660302684046
N           -0.38102722694040       -1.48346881556105       -0.05663189790429
C           -3.49568227870173       -3.23376923076156       -0.09847043833658
H            4.27337468780847        1.54599484021361        0.74267127006756
H            3.66383924076729        2.10880206970394       -0.80578615020974
H            2.72339867044331        2.39378679383584        0.58285303871339
H            4.10606840365992       -1.24326443489023        0.15474896663554
H           -1.62250498951231        2.84092515468280       -0.03028477410907
H           -2.65920885408689        1.65492269846702       -0.91421096062387
H           -2.60270209810338        1.59873115079804        0.83668643256386
H           -3.55043119664058       -3.74767261160397        0.82230975112946
H           -3.50883459711041       -3.79588580605372       -0.99109472826560
H           -3.69941204971913       -2.18220919546154       -0.12501209000872
H            2.11350051223496       -2.80741185166697        0.11015372886858
