  25
        -42.12981481
 C          5.4124380078        0.0285443183       -0.5752806083
 N          4.0445314372       -0.2692959114       -0.5496305708
 C          3.2200831803       -0.1530214288        0.4051757727
 N          1.9138860339       -0.2124237454        0.3459305866
 C         -0.3687717955       -0.4858445667        0.1436655446
 C          0.9376379373       -1.0226095680        0.2283837109
 C         -0.6574819819        0.9801856213        0.2051916230
 O          0.1064061088        1.8905640710        0.3583073852
 N         -2.0282384314        1.0616113008        0.0452450721
 C         -2.7800761149        2.2981280635        0.0350194443
 C         -2.6009217997       -0.1691150384       -0.1065472891
 O         -3.7398764462       -0.4728125066       -0.2679038687
 N         -1.5180762390       -1.1239212982       -0.0369524311
 C         -1.7681982201       -2.5277208447       -0.1672033252
 H          5.8509320012        0.1788640517        0.4191305736
 H          5.9309114097       -0.7934095720       -1.0742118213
 H          5.5662351835        0.9314601982       -1.1733895362
 H          3.5506789780        0.2090322930        1.3967554176
 H         -2.0682195373        3.1207684904        0.0324242350
 H         -3.4069334511        2.3384026040       -0.8544943556
 H         -3.4132033168        2.3595954503        0.9199305869
 H         -1.4351124713       -3.0650589721        0.7223317549
 H         -1.2552306947       -2.9342766002       -1.0407304481
 H         -2.8444230294       -2.6588035985       -0.2880627953
 H          1.0607911873       -2.1017855865        0.2140274076
