25
 energy: -42.166647002402 gnorm: 0.008559895298 xtb: 6.6.1 (8d0f1dd)
C            4.23956345866101        0.48849617962548       -0.02402556618388
N            3.41853011865300       -0.42940808205322        0.23785347700093
C            2.72951117703559       -1.47967603042944        0.00946873370253
N            1.39577536862241       -1.60653989534662        0.03954459489820
C            0.42153188927052       -0.60309683707562        0.05362955691649
C            0.71759616386387        0.72139905680679        0.09631364319334
C           -0.31852595921843        1.73093174726744        0.07108197877959
O           -0.10464605824719        2.92126937842944        0.09173164428038
N           -1.61306161085008        1.22108540784314        0.01030297951864
C           -2.72113173879300        2.15932220609586       -0.02794150350032
C           -1.94377259221179       -0.10797436168853       -0.01792818017061
O           -3.08296903810195       -0.49128504703777       -0.06435123545525
N           -0.87519300680288       -1.02699128890200        0.00437685151202
C           -1.24132716688698       -2.43137862998997       -0.03305533681040
H            4.69575094908053        1.04026720537681        0.79433281977584
H            4.49522078841690        0.75997821239101       -1.04748777197034
H            1.72225662002264        1.09086174830244        0.14972818549986
H            3.28102541532816       -2.41664204749253       -0.07295249382977
H           -2.30654893653275        3.16561425935786       -0.02662378144486
H           -3.31605356846744        1.99287319232110       -0.92603961098218
H           -3.36299989462118        2.01226424486400        0.84096586583077
H           -0.90298617476749       -2.95419722256480        0.86311845373730
H           -0.86806161709090       -2.91645510328409       -0.93696543588349
H           -2.33207158522469       -2.46969271637532       -0.05605614499768
H            1.03301851296155       -2.55278703484117        0.00214989448335
