72
 energy: -4.292715848953 xtb: 6.6.1 (8d0f1dd)
N           -1.57115302571142        2.84646860650752        2.27897786414000
C           -1.59618132616980        2.17702171261429        1.21759369987989
C           -2.76386058944870        2.07451562377277        0.27789255939191
C           -3.32722552596251        0.66184297423714        0.34915348821677
C           -4.29386557745111        0.25027066124775       -0.56959658204188
C           -4.83328770304146       -1.02099045591387       -0.52974245195668
O           -5.78350520973499       -1.49787835199034       -1.38311889023319
C           -6.35364189834606       -0.61817576067386       -2.31759007906628
C           -4.39983451983395       -1.93409689899230        0.45682508461838
O           -4.98601362658325       -3.16453181649453        0.41776936773837
C           -4.66858217832764       -4.09236778884701        1.42127769346223
C           -3.44624548093882       -1.52482119271251        1.36815596343429
C           -2.91786596030505       -0.23981344977050        1.31420715553578
C           -2.17542925068796        2.31754290145268       -1.13323203723154
C           -1.23337968442953        1.20059619586858       -1.61028390517764
C            0.02916473252785        1.12472489184963       -0.81784743266250
N            0.65511035827907       -0.07270265820254       -0.49393280861104
C            2.05664506076462       -0.13936702761117       -0.18445999444223
C            3.00071922353182       -0.59708075876770       -1.40761173650862
C            4.42308582075920       -0.48324486995371       -0.97124858482544
C            5.14128181002873        0.68256939702558       -1.17018144334764
C            6.43144788235417        0.81405264765428       -0.67812088550100
C            7.02027535565351       -0.22014027144862        0.02674123547119
O            8.27181227617841       -0.19655344971417        0.56842261021119
C            9.05171107205803        0.95365277202582        0.38086537582768
C            6.30135043289636       -1.41906123783683        0.22727326256502
O            6.96739210722515       -2.38474154367697        0.92364264472519
C            6.33113598079677       -3.61893503616015        1.12973791476150
C            5.01837283109122       -1.53253332616822       -0.26930824673845
C           -0.06421749941264       -1.31157058545022       -0.57560840888837
C           -3.90324946518952        3.08514809375987        0.57449479579753
C           -4.56162004989896        2.79397807313038        1.92099691748730
C           -3.44215686392118        4.54044661192927        0.53201555321636
H           -4.63092983512502        0.94268997562072       -1.32327613836949
H           -6.81427490284597        0.24886481214617       -1.83142547659572
H           -7.12427953206889       -1.19596358281330       -2.82579114876997
H           -5.61840562382755       -0.27418848199056       -3.05306812407270
H           -4.90975860353909       -3.70773904605193        2.41779738035593
H           -5.28458397565442       -4.96596923387354        1.21383897530132
H           -3.61227795463243       -4.38123026376398        1.38860544494280
H           -3.10798702442717       -2.19479240100914        2.14288510008860
H           -2.19654560995415        0.05402827410647        2.06104002713554
H           -2.99214143964170        2.41960022468943       -1.85052307220932
H           -1.62301311712500        3.25763665415434       -1.13136858756003
H           -1.77823242763699        0.25534244600576       -1.59055745909514
H           -0.99117415122846        1.42658029075826       -2.65532844164282
H           -0.72152795011361        1.65297685089724        0.76842243337279
H            0.67531444087016        1.98961321310437       -0.83306081163951
H            2.17133976788935       -0.80146352179747        0.68894570820111
H            2.33183335614257        0.86502319714736        0.18342181953757
H            2.84586969742744        0.00694415659325       -2.30718333909851
H            2.76016090607892       -1.62783727191027       -1.66269434443644
H            4.70591925965486        1.50246150680279       -1.72160502016499
H            6.96782985713288        1.73396764317536       -0.85124596627735
H            8.59456157864657        1.83493759989822        0.84251858597772
H            9.23185188418125        1.15731086280668       -0.67900385543224
H            9.99837779811140        0.73878562484361        0.87195117904484
H            7.04632035006056       -4.22338062567167        1.68532104095852
H            5.41463988561382       -3.51574128130013        1.72114073389710
H            6.09273326466806       -4.11464169288995        0.18235294278171
H            4.46010541018590       -2.44495866921374       -0.12737340520083
H           -0.23491375949473       -1.60790274586984       -1.61425660237209
H           -1.03379863451500       -1.23903055110730       -0.07219501157986
H            0.52879130050435       -2.08026525540335       -0.08555061559437
H           -4.66055761586487        2.95176505397818       -0.20672204144063
H           -3.84464039604740        2.94205488493769        2.71926192358048
H           -4.92879418755946        1.77118041039202        1.95996086799223
H           -5.40081820761039        3.46882977519664        2.07539833816525
H           -2.66980140507794        4.71078641795381        1.27338737394666
H           -3.06482396564934        4.81602163599227       -0.44962430571541
H           -4.28320111121280        5.19161186491453        0.76112706455690
H           -0.69940528880361        2.84808442875332        2.80151683993256
