72
 energy: -5.966969546598 xtb: 6.6.1 (8d0f1dd)
N           -1.51722325153617        2.79649447419346        2.24954397668708
C           -1.56453176447392        2.16000326067507        1.16863817339821
C           -2.75170576479599        2.06450493070018        0.25463854219311
C           -3.31842816126745        0.65232748238382        0.33252171224035
C           -4.29972255832853        0.24732107845209       -0.57451132989761
C           -4.84346114040855       -1.02178164972312       -0.53049101454717
O           -5.80742666554738       -1.49203956976646       -1.37057296154871
C           -6.38180470586608       -0.61224550005608       -2.30257645448133
C           -4.39854832361556       -1.93963743268900        0.44725704043650
O           -4.98997276980691       -3.16654373051566        0.41244280526048
C           -4.66546659029531       -4.09733807484314        1.41212876437171
C           -3.42998150026210       -1.53722312305687        1.34603436356875
C           -2.89677211911834       -0.25403697524338        1.28829224792106
C           -2.18844302536536        2.30725825156804       -1.16879422898195
C           -1.25210940632740        1.18754570513387       -1.64993331309926
C            0.01337488941155        1.12779797621472       -0.86993420350508
N            0.64121300643074       -0.05468915088898       -0.54036205371431
C            2.02121872088619       -0.06670080381721       -0.16719929016552
C            2.95591733271350       -0.55856846342749       -1.31965117482702
C            4.37981280594939       -0.44956164443941       -0.88111818308309
C            5.09689191616011        0.71499271756000       -1.08461695397017
C            6.40122444159549        0.83276238887075       -0.62843426697906
C            7.00456005986935       -0.21298121952037        0.04654465876526
O            8.27454833674774       -0.20676865322669        0.54057978278780
C            9.06315219391470        0.93662721433168        0.33960321465788
C            6.28009865898233       -1.40705345132280        0.26212946492561
O            6.95747280562462       -2.38406958650805        0.92827768960958
C            6.32083168593415       -3.61637565551626        1.14475691431739
C            4.98213868348419       -1.50651592005689       -0.19809282376229
C           -0.05500122477499       -1.30591187821650       -0.60545853193332
C           -3.87987325112292        3.07974472173052        0.58066583675018
C           -4.51736091757853        2.78103285023998        1.93598410050501
C           -3.41003618603826        4.53284881054177        0.54349310612758
H           -4.64933012811758        0.94437728839764       -1.31829979508385
H           -6.83794139992644        0.25534815619590       -1.81372585604087
H           -7.15691245051013       -1.18924709377068       -2.80471382244554
H           -5.65138842322690       -0.27058368587257       -3.04411822300837
H           -4.89213837909917       -3.71236400764312        2.41198210512667
H           -5.28954834617761       -4.96675633474030        1.21153510478824
H           -3.61137589809904       -4.39227918107643        1.36634277785798
H           -3.08261784882289       -2.21085387663832        2.11358216935917
H           -2.16259843244005        0.03324113652023        2.02535894342141
H           -3.01409178382325        2.39672478362632       -1.87577632978944
H           -1.64132586521428        3.25127131223024       -1.17943411324982
H           -1.79332998350869        0.24137406849897       -1.61257205034944
H           -1.00602106678710        1.39738006050111       -2.69854030372080
H           -0.69597747067641        1.65218826455787        0.68168378622157
H            0.65753488919896        1.99145034829228       -0.90461487634406
H            2.13581638333540       -0.70778929558863        0.71749154601294
H            2.30880407586879        0.94731453358034        0.13461862171001
H            2.79387901701624        0.04699937480197       -2.21406547370051
H            2.70749507291964       -1.59215955111512       -1.56131819311683
H            4.64868590271729        1.54191742187260       -1.61518332727777
H            6.93857782227297        1.74962093400387       -0.81112633466169
H            8.63202220949919        1.81836570916077        0.82544915437435
H            9.21106471128770        1.14672840434215       -0.72471511955176
H           10.02342474947757        0.70730359205352        0.79779948733359
H            7.05242055349909       -4.23272944604477        1.66479806874517
H            5.42957046411939       -3.51032574121956        1.77293579915686
H            6.04419058922867       -4.10118286705783        0.20220748486223
H            4.41995078642318       -2.41519683387675       -0.04644422787944
H           -0.22591110985204       -1.61835486256635       -1.64059680237250
H           -1.02203482810779       -1.24027373024308       -0.09726212063504
H            0.54898658410008       -2.06172083944338       -0.10898067327517
H           -4.64901873572868        2.95493289156913       -0.19032015198494
H           -3.78758367079823        2.91522108205595        2.72675927605825
H           -4.89264992648268        1.76115358272921        1.97209323924760
H           -5.34874882936956        3.46067757183361        2.10792794609161
H           -2.62357438908494        4.69543129596641        1.27345424422254
H           -3.04819774925730        4.81644232836159       -0.44171563122812
H           -4.24429124566069        5.18516534294103        0.79169936116245
H           -0.62986310378815        2.79500965015842        2.74851700456367
