72
 energy: 36.820462724621 xtb: 6.6.1 (8d0f1dd)
N           -2.05308875139599        3.24085274290388        2.47107176109127
C           -1.88044964800751        2.37837283725366        1.57793232179568
C           -2.86283567449727        2.16296267299554        0.46014880170266
C           -3.38851711394285        0.73596710978249        0.49561593164538
C           -4.21670860150468        0.27486203723575       -0.53125749496011
C           -4.73676366314811       -1.00514873739805       -0.51969921879392
O           -5.57381295072068       -1.52111709661602       -1.46360206669178
C           -6.11053517286435       -0.66206833073448       -2.43817176715959
C           -4.40403029679513       -1.88509829364913        0.53506749606534
O           -4.94227601554929       -3.13385621178611        0.44825697650136
C           -4.70045133616034       -4.04476527572034        1.48910081940457
C           -3.58713055537032       -1.42883978295069        1.55125013644390
C           -3.09560670028754       -0.12820598913232        1.53468071475805
C           -2.06943106440405        2.40973749562373       -0.85227938790919
C           -1.15210278038389        1.26036626999760       -1.30487236982837
C            0.06080385234633        1.08774207402446       -0.45722762001646
N            0.56104324348612       -0.06232384515373       -0.03304798276033
C            1.69511054963163       -0.16900986132365        0.64752184647490
C            3.75167399887752       -1.03605269722842       -2.56529771215093
C            4.85891266588821       -0.79415995122636       -1.78192029897339
C            5.58128237193493        0.42377192452479       -1.87737319350186
C            6.68207624366425        0.67358699079745       -1.09326391707759
C            7.11217749717265       -0.26272224976457       -0.15745150594106
O            8.14447493488259       -0.10359521975932        0.71662208514104
C            8.89262079203970        1.08371620944916        0.68852537213433
C            6.43763091811977       -1.51108274385343       -0.06618746650945
O            6.94781163048178       -2.35758556878468        0.87763406960372
C            6.39009998335003       -3.63844849790038        1.00351965469971
C            5.34963473691943       -1.76387827149009       -0.85671343161896
C           -0.17081384346756       -1.28760760068736       -0.31393680213308
C           -4.08230179524326        3.12590675163272        0.52828149289729
C           -4.92487149230943        2.88579185801243        1.78196096770093
C           -3.70909055020743        4.60475207076470        0.43705094213535
H           -4.46419184558889        0.93526500840211       -1.34682895033415
H           -6.62025251159826        0.19596848923254       -1.98700839569718
H           -6.83728082465756       -1.26087511315233       -2.98592840310085
H           -5.34411442495781       -0.30600089980664       -3.13454356130777
H           -5.06612838730720       -3.66972091556124        2.45047071467289
H           -5.25386860600413       -4.94358781268682        1.22105720958309
H           -3.63618044771949       -4.28984597310370        1.57568932214587
H           -3.33268270406046       -2.06851874304338        2.38161454325347
H           -2.49696633334507        0.20352761053053        2.36883788732527
H           -2.78455882389711        2.59633664035796       -1.65501598673957
H           -1.47131011042463        3.31503459371420       -0.73257788652326
H           -1.73843783980820        0.34482180395002       -1.36268718366574
H           -0.82924815202591        1.50850350561882       -2.32748872496843
H           -0.99367967165186        1.73695586754286        1.50131788132139
H            0.64301826964775        1.96932042355122       -0.24484306579483
H            1.98141371795512       -1.10662346917055        1.07072869662492
H            2.24169150325705        0.71650721833848        0.90122417314151
H            3.42414610019295       -0.32532692298988       -3.30295472359338
H            3.24088495463868       -1.98179785969065       -2.52903283822273
H            5.26092019263587        1.15584311889727       -2.60271371030329
H            7.19287564576181        1.62079192944529       -1.18219494477329
H            8.28203567309248        1.95982674609163        0.93575948486774
H            9.36933498942618        1.23776692933572       -0.28418786344984
H            9.66224356209198        0.95964533479752        1.44980966358938
H            6.96731059567604       -4.13024890521899        1.78594399034041
H            5.33506578215937       -3.59706705012432        1.30046500486043
H            6.48316113174774       -4.21440445957898        0.07726003655494
H            4.83513881149853       -2.71049235373654       -0.80867923662780
H           -0.23890525548207       -1.44881298611024       -1.38844045922103
H           -1.17834076220902       -1.23436808269226        0.10450054315004
H            0.35008389017467       -2.13052062654808        0.13289350269647
H           -4.70862890239672        2.89004640024470       -0.34121243567516
H           -4.36033899286804        3.15036173355798        2.66756664379438
H           -5.23399595492976        1.84548239339209        1.85431697962207
H           -5.81932870868470        3.50506147847370        1.74686263650481
H           -3.07246292212175        4.88242096053895        1.26848065133001
H           -3.20570824133530        4.83734638927740       -0.49760937599378
H           -4.61550840514045        5.20527358871693        0.48585622669911
H           -1.31640523593339        3.32061398135418        3.16544900419918
