72
 energy: 31.441037183358 xtb: 6.6.1 (8d0f1dd)
N           -1.74312282133534        2.99309977056829        2.36066772198542
C           -1.69384202290761        2.24748813848837        1.35611705697810
C           -2.80048592492514        2.10735669375965        0.34537687268806
C           -3.35074812439573        0.69070912659894        0.40012511239039
C           -4.27074852045174        0.26042542318814       -0.55621450812455
C           -4.80007981946032       -1.01589157609097       -0.52754255560696
O           -5.70860856018637       -1.51076884722868       -1.41695444974407
C           -6.26903772590840       -0.63643902932908       -2.36236567027034
C           -4.40169750883066       -1.91539623601872        0.48512445635305
O           -4.97113793601336       -3.15177784926175        0.43028109763355
C           -4.67914095008130       -4.07481100565907        1.44602187605318
C           -3.49379407042933       -1.48898832171662        1.43385040523141
C           -2.97982566700756       -0.19814709882232        1.39175261272203
C           -2.13723590645352        2.35191556887782       -1.02890323589245
C           -1.19083879879783        1.22850529754643       -1.48494437082932
C            0.05880650567535        1.10759322096782       -0.66248407666538
N            0.64525927321180       -0.08407491926318       -0.32261216016437
C            1.94093668785429       -0.20582547193109        0.06241672161964
C            3.26410424687992       -0.75246988957970       -1.81482141830807
C            4.55999161000959       -0.59071368658923       -1.26314765951615
C            5.28742623922524        0.59376696162436       -1.42375810951711
C            6.52000261363784        0.76457610634417       -0.82542206108684
C            7.06055878088023       -0.23735771255953       -0.03643625539790
O            8.24634018624794       -0.16048280528528        0.64218510984656
C            9.00994110865707        1.00280656458461        0.49895021719502
C            6.35527628224340       -1.45044834396998        0.12070932907810
O            6.98063496379108       -2.38460810200378        0.89697635767751
C            6.35644590015230       -3.62573356256012        1.08096293689598
C            5.13099191246998       -1.61164857300205       -0.47932562358087
C           -0.10210170697601       -1.31561487158274       -0.47704176481885
C           -3.97203783927165        3.10123887929215        0.55722547633316
C           -4.69369008327983        2.83245189144044        1.87599036222408
C           -3.53889461344114        4.56409695232957        0.49666777299624
H           -4.57339651296573        0.93962128661547       -1.33576230799322
H           -6.74583822043472        0.22863313880719       -1.88738868276430
H           -7.02523696506394       -1.21889798942643       -2.88729589350414
H           -5.52098183410641       -0.28729939865307       -3.08167015857879
H           -4.96449961688383       -3.69390729880825        2.43212759274587
H           -5.27133046095459       -4.95993885155136        1.21823539733972
H           -3.61790773742450       -4.34747568127038        1.45446795643738
H           -3.18413739906112       -2.14863154456546        2.22905963056632
H           -2.29973501041665        0.11274353765011        2.16946948780513
H           -2.92308840665859        2.48882549998835       -1.77697168266870
H           -1.56596527708733        3.27836188031578       -0.98856417364122
H           -1.74165960810752        0.28778226375440       -1.50897306355035
H           -0.92516358938586        1.47889165987320       -2.51592644095640
H           -0.80924180564473        1.66678718190353        1.04012755891702
H            0.70664201849137        1.97615206817300       -0.60908946702135
H            2.19786697855629       -1.04934994110467        0.69059073927238
H            2.38837594653640        0.70963500574083        0.40404534537814
H            3.03223487875586       -0.11041207770996       -2.65366148626640
H            2.91983124958250       -1.75677048281919       -1.96302539520290
H            4.88880689417099        1.38387653084754       -2.04171475684437
H            7.05521489771080        1.69038489664627       -0.97424117674704
H            8.48308070533029        1.88257790850294        0.88431240425227
H            9.29387443732061        1.18851412413626       -0.54088490449341
H            9.90847649406482        0.82988797032135        1.08792881303756
H            7.01558713002834       -4.18772361518202        1.74028418654426
H            5.37533276581608       -3.53436190383223        1.56008279162396
H            6.23732503330857       -4.15856108155483        0.13090718533005
H            4.58521347526096       -2.53588230134915       -0.37490250571374
H           -0.24008581271460       -1.56011678185108       -1.52893209185931
H           -1.08466053770234       -1.23603457649572       -0.00396727878709
H            0.45664679970572       -2.12594618069795       -0.01401216529016
H           -4.69038901071922        2.93651000018879       -0.25497619078300
H           -4.02116859869726        3.02377049609288        2.70038539970164
H           -5.03712527543029        1.80182973832521        1.92721414180991
H           -5.55604838277548        3.49034427440661        1.97166787246576
H           -2.81172305352418        4.76440291234930        1.27211213272542
H           -3.11585725505567        4.81771985850140       -0.47194621306278
H           -4.40111912608360        5.20686178568721        0.66566659978398
H           -0.91725649688782        3.01648661972463        2.94358653634077
