72
 energy: 37.074623979890 xtb: 6.6.1 (8d0f1dd)
N           -2.02718302484281        3.21897549885310        2.45908279615852
C           -1.86466033114038        2.36176567215875        1.56103516279806
C           -2.85827865344105        2.15655779802440        0.45170570955945
C           -3.38491012899510        0.73116482005342        0.48754625663583
C           -4.22127255336333        0.27414689776921       -0.53364111372397
C           -4.74103327556384       -1.00501757629638       -0.51914618336826
O           -5.58379828349919       -1.51936631320832       -1.45971887633052
C           -6.12491339287379       -0.66035104547481       -2.43174314585538
C           -4.40551990073943       -1.88707321754868        0.53299752240726
O           -4.94415197040557       -3.13411854272305        0.44629875454712
C           -4.69785764964810       -4.04701987038006        1.48478000609707
C           -3.57839085592346       -1.43465382365255        1.54215526841507
C           -3.08444111253852       -0.13498381496486        1.52263856515389
C           -2.07258399067459        2.40431213853585       -0.86273315340602
C           -1.15299880879628        1.25239474857099       -1.30411844739866
C            0.06955955540855        1.07908122935455       -0.46955757075145
N            0.57713211529837       -0.06935206501668       -0.05922297039886
C            1.72251340465095       -0.18356481640032        0.60239231491474
C            3.70877615415888       -1.01527949369877       -2.50661001537653
C            4.82761103332862       -0.77670359609834       -1.73755208895940
C            5.55235224310312        0.43850762292687       -1.83883887847579
C            6.66913398352413        0.67809144447272       -1.07394181493388
C            7.11312707938362       -0.26270804900215       -0.15050601096572
O            8.14521655618719       -0.09969556060951        0.71973493001762
C            8.90358771244529        1.08194235977403        0.67992526391378
C            6.43497165762956       -1.50862279709788       -0.05297221180987
O            6.95191013487081       -2.36033453014367        0.87711656978833
C            6.39398076544582       -3.64075879012321        1.00173934857736
C            5.33057353700031       -1.75046686443120       -0.82405124777592
C           -0.16550045023569       -1.28986433329467       -0.32763139406941
C           -4.07335167855555        3.12367526819290        0.53117087918028
C           -4.90442550904042        2.88227884575232        1.79246287186420
C           -3.69442658880594        4.60151039989514        0.44214045940630
H           -4.47357825539407        0.93477606304505       -1.34759316916027
H           -6.63238321917408        0.19838560939016       -1.97914008787438
H           -6.85474343004799       -1.25749645754312       -2.97736686097528
H           -5.36031485653492       -0.30547120506731       -3.13034891703257
H           -5.05692873724978       -3.67255308054397        2.44877182879203
H           -5.25455847055103       -4.94380276680388        1.21941972622492
H           -3.63361657106955       -4.29468963072637        1.56408259236373
H           -3.31770796113984       -2.07594641900929        2.36920369759593
H           -2.47760064030529        0.19418618142656        2.35226398752389
H           -2.79423563500490        2.58319466587890       -1.66164066134360
H           -1.47809560887104        3.31257427081535       -0.75508442608240
H           -1.73978578685199        0.33691979447356       -1.37150660085203
H           -0.81753494485316        1.51078633292582       -2.31547251993990
H           -0.97766312814864        1.71704508329593        1.46923172622240
H            0.65848216157549        1.95551554655473       -0.25615361074702
H            1.99670880057702       -1.12039716234253        1.03323976837299
H            2.27089233930791        0.69810713900825        0.86383993652724
H            3.38197613329891       -0.30741713557078       -3.24807197027560
H            3.20787124740239       -1.96740587975834       -2.47647781959322
H            5.22223497408384        1.17651171201074       -2.55425362509072
H            7.19333749413068        1.61554138672459       -1.18603712503095
H            8.29296221534389        1.95315592508422        0.94605945910088
H            9.36543196174543        1.24829165523753       -0.29665544646053
H            9.69139937983634        0.95461144848645        1.42208139790823
H            6.96365125978521       -4.12660167469176        1.79257260490570
H            5.33818044947097       -3.59432540819303        1.29014461963740
H            6.48991768747179       -4.22020928390001        0.07620484095639
H            4.80903061579561       -2.69298292774731       -0.77077101269325
H           -0.24365659969882       -1.46031763666127       -1.39927738782934
H           -1.16906595867620       -1.22464707692577        0.10110704087174
H            0.35631299943295       -2.13209866437198        0.11727680808984
H           -4.70979628811912        2.89292510721204       -0.33319559105521
H           -4.32947934736094        3.14014867406459        2.67351861894835
H           -5.21551041345196        1.84252787114141        1.86298591337397
H           -5.79779143817974        3.50474838646153        1.77102614531864
H           -3.04837081742825        4.87129589827080        1.26881065671409
H           -3.20092391489883        4.83543695461570       -0.49727870858543
H           -4.59615668009129        5.20838169752705        0.50234447106672
H           -1.28291439478413        3.30836875651511        3.14439822401787
