72
 energy: -5.568616865510 xtb: 6.6.1 (8d0f1dd)
N           -1.54371927606532        2.82142185832789        2.26501379137710
C           -1.58019234368974        2.16831807266735        1.19364648092790
C           -2.75756857535358        2.06947381396642        0.26645926434073
C           -3.32282099387768        0.65715668054612        0.34090612991466
C           -4.29682769293805        0.24892490856095       -0.57201987438332
C           -4.83839334688959       -1.02128723887756       -0.53019318983399
O           -5.79551471322038       -1.49490207666565       -1.37688330585776
C           -6.36784728904248       -0.61525818994384       -2.31016574263842
C           -4.39915737487183       -1.93685957946799        0.45187757691647
O           -4.98804385876066       -3.16561439706617        0.41483611770507
C           -4.66715217712247       -4.09475261236774        1.41655573898619
C           -3.43803424839442       -1.53098679222522        1.35695859369697
C           -2.90729240874236       -0.24684911756245        1.30130124422233
C           -2.18152030485029        2.31202791766784       -1.15084309722620
C           -1.24202808445353        1.19437641505225       -1.63074821850772
C            0.02190011733008        1.12637613745345       -0.84421759612243
N            0.64855759315869       -0.06379418051090       -0.51792482870696
C            2.03999257097362       -0.10233486207378       -0.17672886568133
C            2.97809261924777       -0.57734042299769       -1.36257797198160
C            4.40133995985449       -0.46625381286121       -0.92578612073547
C            5.11899147606611        0.69868576614050       -1.12772672119774
C            6.41638987151028        0.82320150419869       -0.65371158743593
C            7.01248016110935       -0.21676830457433        0.03641916869693
O            8.27346509269584       -0.20179738606275        0.55434048261228
C            9.05766338859930        0.94506910399103        0.35989830899299
C            6.29064575934802       -1.41323437087331        0.24462494167977
O            6.96232908816872       -2.38453185492853        0.92614381430467
C            6.32584692436995       -3.61780099979292        1.13723665158877
C            4.99997223168238       -1.51959432779280       -0.23365482347042
C           -0.05901728854868       -1.30910971817312       -0.59080570878534
C           -3.89167347698484        3.08224768941362        0.57752616244643
C           -4.53972373797765        2.78725969137200        1.92837589024442
C           -3.42651811180450        4.53649236900396        0.53807165079897
H           -4.64024938145888        0.94377409065775       -1.32062670284079
H           -6.82633662058764        0.25201343279742       -1.82267514369276
H           -7.14060659933419       -1.19279807709987       -2.81535947788460
H           -5.63497839109950       -0.27236435120082       -3.04859872673347
H           -4.90108328937363       -3.70976943952962        2.41469419238724
H           -5.28722884528317       -4.96624455198465        1.21256527538441
H           -3.61192693941104       -4.38660028111521        1.37738339295019
H           -3.09506460414799       -2.20286189190575        2.12797506469341
H           -2.17938901590314        0.04373319104358        2.04315338097164
H           -3.00262146677016        2.40786804601042       -1.86305990610206
H           -1.63169731518828        3.25397561980895       -1.15530421952825
H           -1.78489886911648        0.24859337621895       -1.60189588400226
H           -0.99913666383674        1.41244418406498       -2.67773517367944
H           -0.70853220042245        1.65234520619135        0.72539760958092
H            0.66765360282895        1.99034617253372       -0.86864964812020
H            2.15348038621630       -0.75345843222794        0.70342937749686
H            2.31982381496127        0.90749676776689        0.15864815519916
H            2.82060995928548        0.02699883984197       -2.25981118487680
H            2.73402468011419       -1.60965648417730       -1.61064338950293
H            4.67698199450148        1.52212829033476       -1.66862358690281
H            6.95314617304658        1.74167148872125       -0.83140764581113
H            8.61343601737739        1.82663976483696        0.83364988011693
H            9.22155255296094        1.15188705219171       -0.70230613932288
H           10.01130571376095        0.72326332797142        0.83461744261694
H            7.04926326262532       -4.22817805263735        1.67535742411100
H            5.42162826364548       -3.51303384958245        1.74685164607789
H            6.06863058230633       -4.10819215327887        0.19208000699197
H            4.43962234670723       -2.43015176203943       -0.08716452487735
H           -0.23030557117276       -1.61358542771550       -1.62765207188706
H           -1.02712422755197       -1.23916493646203       -0.08477054320359
H            0.53892201613471       -2.07169880823724       -0.09714342933038
H           -4.65486177007076        2.95318516691803       -0.19867358769249
H           -3.81640691999718        2.92848462839242        2.72293628235035
H           -4.91074103960418        1.76584586476577        1.96579097031879
H           -5.37522313342754        3.46436836664068        2.09144413635871
H           -2.64720150830959        4.70289918874756        1.27388482555613
H           -3.05687614196048        4.81621840423038       -0.44530230660982
H           -4.26442085675544        5.18805217945430        0.77664859708081
H           -0.66393387822759        2.82200399497211        2.77576209694992
