72
 energy: 36.528069016925 xtb: 6.6.1 (8d0f1dd)
N           -2.03566571199761        3.22243181974669        2.47999757620542
C           -1.87426683617027        2.37512559985859        1.56967116155706
C           -2.86405729619236        2.16401261448823        0.45441673392972
C           -3.38911458862443        0.73682098948969        0.49280645927624
C           -4.22050412803917        0.27491767582848       -0.53188067839054
C           -4.74205104780276       -1.00463360874881       -0.51865443734190
O           -5.58461173374588       -1.51964221649267       -1.45742874207312
C           -6.11712638525546       -0.66103206009127       -2.43347731161978
C           -4.40414627521519       -1.88576041526547        0.53347733524062
O           -4.94464672598959       -3.13366581755208        0.44756705892505
C           -4.69997816065363       -4.04625157978658        1.48637186950462
C           -3.58606555598054       -1.42776624068928        1.54847302084155
C           -3.09542849191998       -0.12614854800834        1.53240653041609
C           -2.07885075689734        2.40632570844595       -0.86542496928376
C           -1.15881552115616        1.25870777955111       -1.32048835954823
C            0.04877939440889        1.09569008303342       -0.46412483531113
N            0.54221071131984       -0.05054047093525       -0.01643959379229
C            1.66376362284330       -0.14867805975447        0.68384416936079
C            3.79588289775847       -1.06091997438691       -2.62433063624300
C            4.89020289330428       -0.81120330088970       -1.82629668168690
C            5.60547250522631        0.41329115772892       -1.90775275195862
C            6.67339017600111        0.67804139552614       -1.08386403778803
C            7.10536019260501       -0.26094409299903       -0.15080635434619
O            8.14901491071761       -0.10875212782210        0.71096613706339
C            8.89783975364994        1.07669271952188        0.67457152924224
C            6.43046841767023       -1.50984475415434       -0.06446993999473
O            6.94591948143531       -2.35635581291465        0.87827518652801
C            6.38726636802630       -3.63618641010490        1.01176398842366
C            5.36631985468748       -1.77390111790258       -0.88557221633446
C           -0.17059766992253       -1.28265591934710       -0.30864542499541
C           -4.08431916840749        3.12666363266792        0.52516605482461
C           -4.91746680763727        2.88355254379240        1.78190439043778
C           -3.70375131507288        4.60340156292490        0.43845053161045
H           -4.46808035299426        0.93521103434939       -1.34709102522826
H           -6.62455424410175        0.19796340851218       -1.98195606359575
H           -6.84371080134182       -1.26011798520355       -2.98061050184349
H           -5.34950970717669       -0.30578227687136       -3.12987584234087
H           -5.06061391566169       -3.67078781742821        2.44975178185760
H           -5.25605099711030       -4.94418908848617        1.22046960782931
H           -3.63568211486018       -4.29263509191015        1.56916596181141
H           -3.32656439165323       -2.07048796121944        2.37479186570330
H           -2.48660371215304        0.20314228774643        2.35959739676800
H           -2.79837223225306        2.59064805505636       -1.66545934034595
H           -1.47924603596117        3.31109182340288       -0.74720012501909
H           -1.73912691353869        0.33929883314907       -1.37558975069618
H           -0.84087530385208        1.50512622808375       -2.34543625565881
H           -0.97945453942706        1.74472136091219        1.46136223972218
H            0.64123119835366        1.97738413675855       -0.28032950869010
H            1.98221356633606       -1.09315599445205        1.06629600316150
H            2.21324532228533        0.73660521967933        0.93304680190153
H            3.46774531085029       -0.34585858485114       -3.35738620288309
H            3.27563910939024       -2.00166678579870       -2.57972826568424
H            5.28625051394399        1.15217328396067       -2.62699399230985
H            7.17735833834834        1.62983654881001       -1.16145061111126
H            8.29686438218739        1.95440767157139        0.93109065582063
H            9.36398154282477        1.22995295124863       -0.30612685860207
H            9.67455058356859        0.94750575356800        1.42687215904410
H            6.97388291521214       -4.13281181686867        1.78446419649159
H            5.33966521998212       -3.59366042133870        1.32773267555941
H            6.46045477763712       -4.20715571115650        0.08172134288158
H            4.85183865307195       -2.72081323546529       -0.83574697257951
H           -0.23035999034358       -1.43504955120543       -1.38645393720784
H           -1.18153615489916       -1.24835083961753        0.10164643520458
H            0.35966825967598       -2.12317501818210        0.13211657529048
H           -4.71472798478974        2.89671731374284       -0.34153622866947
H           -4.33894512174266        3.14156546695727        2.66276184300567
H           -5.22387232619481        1.84239515718375        1.85248312405454
H           -5.81005146165769        3.50279688952566        1.75418316050381
H           -3.05883499930536        4.87143045677957        1.26863513474088
H           -3.19816375252353        4.83540657359664       -0.49524231368939
H           -4.60591023421999        5.20774956832845        0.49013799231004
H           -1.27909448537918        3.29448130423579        3.15705919044043
