72
 energy: 1.556020793111 xtb: 6.6.1 (8d0f1dd)
N           -1.62673366832844        2.89789945894787        2.30576490822625
C           -1.62880666679482        2.19606146420701        1.26583254550698
C           -2.77611420057562        2.08487697321529        0.30088824216828
C           -3.33566602730576        0.67133412642090        0.36621905870591
C           -4.28743698648733        0.25349398016975       -0.56449587783876
C           -4.82290573036620       -1.01972378453046       -0.52888513324289
O           -5.75915295009530       -1.50327734105771       -1.39524803397693
C           -6.32539845347868       -0.62484277240596       -2.33317089783585
C           -4.40081906758128       -1.92814619586665        0.46627582506338
O           -4.98167085823610       -3.16117156056456        0.42245484340907
C           -4.67232257626579       -4.08683853910101        1.42990776805947
C           -3.46239165487998       -1.51279005692992        1.39026385261756
C           -2.93896606561841       -0.22586880780697        1.34041310102686
C           -2.16240564371464        2.32863121371146       -1.09804703645752
C           -1.21688898525258        1.21196335327184       -1.56942742633392
C            0.04088909128370        1.12234028213287       -0.76505251990849
N            0.66035556667110       -0.08696986836961       -0.44016248844579
C            2.05930666215033       -0.18990750171344       -0.16513322476819
C            3.04949165143125       -0.63349845132074       -1.49373749108476
C            4.46597441162983       -0.51531890591460       -1.05985767093899
C            5.18777854660545        0.65116913316115       -1.25516138917726
C            6.46303543416555        0.79550642364498       -0.72859279087782
C            7.03657645420343       -0.22708038299537        0.00568107522555
O            8.26827574987574       -0.18627158561632        0.59454034098255
C            9.04051777340392        0.97007236509546        0.42122942550481
C            6.32259837911512       -1.43049190441941        0.19127862029570
O            6.97668704709120       -2.38607801795370        0.91494061720851
C            6.34140757919312       -3.62169334384978        1.11357854135886
C            5.05530410100534       -1.55733645070912       -0.33970867192048
C           -0.07682613273327       -1.31602902918516       -0.54359115824954
C           -3.92654638885947        3.09044365534129        0.56894807633069
C           -4.60653736859798        2.80794049710127        1.90651847384838
C           -3.47496031287765        4.54832496576423        0.52033840593660
H           -4.61263039481061        0.94158156800718       -1.32721219225477
H           -6.79149578407773        0.24161430527514       -1.85071418567756
H           -7.09099856773568       -1.20421433142840       -2.84735125152266
H           -5.58542467001020       -0.27881503591258       -3.06273496602467
H           -4.92842992840731       -3.70292711384701        2.42293304544205
H           -5.28020105925942       -4.96454228718060        1.21542996809142
H           -3.61402310670204       -4.36982019742787        1.41094373721924
H           -3.13348344295517       -2.17943687948861        2.17185991433539
H           -2.23142258205203        0.07419978134227        2.09767972914954
H           -2.96906461227319        2.44360822877652       -1.82610075468008
H           -1.60327582440802        3.26409631248208       -1.08315423184926
H           -1.76418198477777        0.26776171591969       -1.56464369585491
H           -0.97304900539829        1.44834942714849       -2.61086102170810
H           -0.74910194680882        1.65380175497925        0.85737484262574
H            0.69043711546990        1.98640372954232       -0.76159752336927
H            2.19602314501576       -0.89023674421629        0.67223894452229
H            2.35014880358025        0.79467575188141        0.24073897541555
H            2.89964018682882       -0.03301423485163       -2.40026839842765
H            2.81158632678641       -1.66156779402474       -1.75721915758000
H            4.76537340303078        1.46399996542247       -1.82698179614920
H            6.99878913466659        1.71805147613096       -0.89296780553875
H            8.55764266219374        1.85075869037275        0.85739393763552
H            9.25469102772665        1.16706037076553       -0.63325421334217
H            9.97222960331342        0.76989699863588        0.94578839893201
H            7.03917613612875       -4.21296424952423        1.70469099324593
H            5.40122049663931       -3.52137702336824        1.66774920515526
H            6.14177128379111       -4.12915185750350        0.16320034545639
H            4.50035402883226       -2.47318263102586       -0.20768207562725
H           -0.24015602195141       -1.59525108906512       -1.58677097297492
H           -1.05116524189721       -1.23810222991101       -0.04982705904032
H            0.50364386800574       -2.09807178888823       -0.05971572278025
H           -4.67112885173340        2.94703151248030       -0.22280607768016
H           -3.90369405024958        2.97083391750170        2.71330807095299
H           -4.96596309365587        1.78249027111471        1.94973478792508
H           -5.45356601363647        3.47783940436800        2.04138802699838
H           -2.71721259233414        4.72828698600418        1.27308128236056
H           -3.08222246124111        4.81592110209130       -0.45744271298808
H           -4.32327040528167        5.19724805362823        0.72959431428558
H           -0.77129341128895        2.90279901010782        2.85166452492079
