72
 energy: 35.950927619620 xtb: 6.6.1 (8d0f1dd)
N           -1.83422162654796        3.05774980157164        2.40448154561560
C           -1.74124929082837        2.28886902188400        1.42042379677828
C           -2.81738199984526        2.12427812034494        0.37811473645831
C           -3.36117676638253        0.70497757452757        0.42600439906332
C           -4.25583016192864        0.26611579991349       -0.55061315677109
C           -4.78077579551116       -1.01206583359516       -0.52567193985955
O           -5.67100044201254       -1.51275103490678       -1.42911590644341
C           -6.22609690523452       -0.64414842656709       -2.38283284789161
C           -4.40271673399737       -1.90597618883390        0.50009296771118
O           -4.96382311258381       -3.14512713845337        0.43500857940675
C           -4.68498670579602       -4.06561161643816        1.45721344639886
C           -3.51828886335058       -1.47163142762283        1.46697603372543
C           -3.01128060411859       -0.17783073525829        1.43072601578740
C           -2.11659143390866        2.36792106683608       -0.97839750715972
C           -1.17347115967882        1.23526799298556       -1.42847245550490
C            0.07417206582320        1.08197130902245       -0.60792119844881
N            0.63412463184533       -0.08113820179003       -0.23506925948113
C            1.86307524877960       -0.21540607738582        0.26353286788632
C            3.42840805885333       -0.84351436545165       -2.06263058032142
C            4.63586522241452       -0.64810463863127       -1.41149225591223
C            5.36608701448208        0.54935936770233       -1.55072437511086
C            6.56325484338093        0.73962542779653       -0.90107947101535
C            7.07778884884926       -0.24476378259033       -0.06973577479759
O            8.21814215864952       -0.14125261085551        0.66830687575772
C            8.98143049591163        1.02736800714343        0.55523646024765
C            6.37894290285738       -1.46842095291048        0.06903193785461
O            6.97818693649284       -2.37800479923400        0.88956377374871
C            6.36838809057547       -3.62953198132575        1.05771367949046
C            5.18933004500224       -1.65470760014526       -0.58119241630532
C           -0.11697333381800       -1.31143374113206       -0.42777172859749
C           -4.00436401160255        3.10830066478084        0.54850968374261
C           -4.75873046012587        2.84843247234881        1.85114346173548
C           -3.58674871658401        4.57535565126665        0.47996633638731
H           -4.54345539377571        0.93904422811995       -1.34102974538081
H           -6.71208643871377        0.21975647913237       -1.91520288565941
H           -6.97479780454547       -1.22973519247220       -2.91549337811953
H           -5.47267885228140       -0.29345716735363       -3.09554228722423
H           -4.99218327494337       -3.68740470379324        2.43775040371741
H           -5.26594651744421       -4.95534060417669        1.21922037663731
H           -3.62233231754131       -4.33101552111830        1.48663190114806
H           -3.22282733181731       -2.12548941591725        2.27209979552565
H           -2.35223348630225        0.14085814210244        2.22351030549415
H           -2.88575830647119        2.52140607797416       -1.74091368887511
H           -1.53730463039179        3.28771581484648       -0.91758121794853
H           -1.73103677902470        0.30102454437850       -1.47087332452707
H           -0.88948151979646        1.49217007069685       -2.45190629231054
H           -0.85416689703846        1.68609341981921        1.17200735460389
H            0.70609998762380        1.95641957652265       -0.50155089065323
H            2.13073948009060       -1.13120324233189        0.75879178363626
H            2.40205174886718        0.66546190478981        0.54964400477353
H            3.13702516394018       -0.16437790981589       -2.84393894899293
H            3.00160074883950       -1.82233865098756       -2.11511397143273
H            4.98417740393221        1.32125441042536       -2.19994350541908
H            7.09473340362626        1.66845245430670       -1.03673004767638
H            8.42503782550863        1.90325771562553        0.90526172609671
H            9.31844711288094        1.20696522320604       -0.46933518580072
H            9.85142601891686        0.87317937710461        1.19068113168810
H            6.99791466755647       -4.16726028599032        1.76309033550524
H            5.36155691648927       -3.54879468159386        1.47934740305586
H            6.31278782502596       -4.17855853276411        0.11186321812214
H            4.64774989151546       -2.58228088066173       -0.49438292121419
H           -0.24069866013312       -1.52844487377079       -1.48659672572712
H           -1.10220860646857       -1.22941076792380        0.03645195509189
H            0.42394134118242       -2.14262292083069        0.02047119039144
H           -4.70118235439542        2.92633463168110       -0.27945652830496
H           -4.11274526199977        3.05989511791590        2.69114885075001
H           -5.09115245667913        1.81466974493736        1.90800114997464
H           -5.63197842680665        3.49591785934780        1.91446107299166
H           -2.88375976607210        4.79318981090739        1.27239438454536
H           -3.14180007592861        4.82067453372244       -0.48037269354893
H           -4.46052654648946        5.20994596048738        0.61673686985516
H           -1.02576949446443        3.10349734054173        3.01155564568742
