72
 energy: 36.706208386057 xtb: 6.6.1 (8d0f1dd)
N           -1.91902204665433        3.13074890940142        2.43121601626860
C           -1.79387372409565        2.32034482704468        1.48427037501368
C           -2.83490654455903        2.13728149410377        0.41023409558516
C           -3.37273623417823        0.71624616610279        0.45269384818929
C           -4.24108938338658        0.26997846111993       -0.54439895403429
C           -4.76421906285196       -1.00819862549421       -0.52232965024702
O           -5.63527955960925       -1.51276548814197       -1.43907820068050
C           -6.18309757401902       -0.64950581483368       -2.40301704993022
C           -4.40565924009097       -1.89912421180190        0.51514491274671
O           -4.95739139281042       -3.13977052433491        0.43955609032510
C           -4.69088902258277       -4.05798414768900        1.46876574337446
C           -3.54443855584210       -1.45597327402729        1.49947706779536
C           -3.04321376127890       -0.15925772385855        1.47029398996981
C           -2.09655790039483        2.38096385859547       -0.92859743380768
C           -1.16197395943874        1.23985959325882       -1.37618180229420
C            0.08486445218063        1.06950864644940       -0.56881191717098
N            0.62272338334788       -0.07784681680874       -0.18062055416389
C            1.81012576479534       -0.21576773555044        0.41021261546691
C            3.54762823283170       -0.92136122916370       -2.25924653874360
C            4.71389305259532       -0.70492278113356       -1.55354171908882
C            5.44470059408597        0.49966490768884       -1.67661696539564
C            6.60902463157050        0.70929452136566       -0.97565025894936
C            7.09868130305678       -0.25410117793712       -0.10149989621897
O            8.19350483722373       -0.12309088454663        0.69813862484011
C            8.95335506415555        1.05288432219263        0.61179417903671
C            6.40594155705414       -1.48872175511093        0.01627407622787
O            6.97357704815892       -2.37582517355273        0.87741708839820
C            6.37847170847191       -3.63637942573234        1.03369371500944
C            5.25009146331951       -1.69672195997483       -0.68591005318656
C           -0.13583696974084       -1.30220690960263       -0.38715069223552
C           -4.03486460138860        3.11466347250896        0.54010187590480
C           -4.82222636409548        2.86273576952686        1.82533368606527
C           -3.63370799870958        4.58605430319402        0.46459680349986
H           -4.51365427639486        0.93735643168329       -1.34510808483363
H           -6.67805198325055        0.21239473807585       -1.94209724265901
H           -6.92370428068730       -1.23927629368742       -2.94223871969302
H           -5.42400953709403       -0.29763981455813       -3.10883636993395
H           -5.02002016278426       -3.68096358944165        2.44240550162523
H           -5.26108058106094       -4.95069387950748        1.21840866815838
H           -3.62719647396903       -4.31467694865151        1.51890987003927
H           -3.26264979082275       -2.10344060130775        2.31425172163022
H           -2.40561061382064        0.16574153323336        2.27836218312194
H           -2.84579284613338        2.54670274249211       -1.70741510838422
H           -1.51124566609427        3.29555553700568       -0.84812361136098
H           -1.73281298386947        0.31504678187473       -1.43003334499370
H           -0.85803101429114        1.50208479597887       -2.39154996919928
H           -0.90153594649725        1.70137930440992        1.30388501833779
H            0.69459470829056        1.94706550396931       -0.40150209927077
H            2.06599051713264       -1.14445454395659        0.87743107418476
H            2.36491356833970        0.65697027150392        0.69256202938287
H            3.23701477578269       -0.22895101652024       -3.02121118720244
H            3.08484925124135       -1.88872366640298       -2.26781325896408
H            5.08088067130530        1.25717458566077       -2.35341614895718
H            7.13474692829058        1.64318107427574       -1.09996624382679
H            8.36733226148748        1.92382321600230        0.92358154900825
H            9.34403060908961        1.22306140815257       -0.39496399524952
H            9.78974919235235        0.91438820753733        1.29436223358223
H            6.97949465763274       -4.14730297953686        1.78168977304880
H            5.34903932708900       -3.56467296765150        1.39733190169701
H            6.38811340284515       -4.19920805457142        0.09515442496826
H            4.71326744389799       -2.62844903022482       -0.61286890562974
H           -0.24252598185392       -1.49950659043516       -1.45069576384631
H           -1.12697851373825       -1.22120816069374        0.06727530846065
H            0.39266983715043       -2.14158341400902        0.05979365464475
H           -4.70830856822329        2.91487697845956       -0.30394775172025
H           -4.20598447831570        3.09348360415724        2.68362400370810
H           -5.14465907296004        1.82622552915568        1.88714361677152
H           -5.70538303258610        3.49920077645726        1.85480522740683
H           -2.95506907840855        4.82506417135359        1.27296708559649
H           -3.16756045761260        4.82564011356290       -0.48670166441277
H           -4.51953043672544        5.21007803703150        0.56837150346227
H           -1.13722170023329        3.19156985050475        3.07974106249694
