72
 energy: -2.021108732218 xtb: 6.6.1 (8d0f1dd)
N           -1.59936508888232        2.87238379422078        2.29284718889280
C           -1.61261916124326        2.18614017240511        1.24226481685298
C           -2.76993124804642        2.07957851637501        0.28954159573885
C           -3.33150131991751        0.66653300043763        0.35778561898538
C           -4.29067676005367        0.25180182234006       -0.56697522310282
C           -4.82808600642666       -1.02046251501995       -0.52929629387951
O           -5.77125413480311       -1.50069731959120       -1.38934290152087
C           -6.33929763588574       -0.62152891009045       -2.32551691084894
C           -4.40039233733602       -1.93124924755900        0.46157446387708
O           -4.98390649410028       -3.16314298741968        0.42014863333340
C           -4.67049203602786       -4.08970663777757        1.42565996839603
C           -3.45446190465013       -1.51885714799160        1.37933263601210
C           -2.92858598906983       -0.23288419150204        1.32749918253675
C           -2.16851355406613        2.32297438813298       -1.11537903009349
C           -1.22446699823298        1.20638252350043       -1.58981447945772
C            0.03595707809769        1.12341161802041       -0.79118268168403
N            0.65935464179496       -0.08071101221776       -0.46750224528537
C            2.06366018222654       -0.17042944814293       -0.17990661957767
C            3.02384368035917       -0.61633615859103       -1.44962147539090
C            4.44458117595194       -0.49963335172812       -1.01556754664666
C            5.16416017165309        0.66657992148018       -1.21281003505005
C            6.44709462188961        0.80461523011539       -0.70351323065174
C            7.02845714858573       -0.22378857724210        0.01602497761894
O            8.27014235483085       -0.19151182203297        0.58142284388395
C            9.04597083829492        0.96196917443409        0.40099297201297
C            6.31221370780995       -1.42505361477250        0.20914658872707
O            6.97237390621323       -2.38547952296351        0.91966021303540
C            6.33636924968227       -3.62042686987756        1.12154980418469
C            5.03695053726913       -1.54523693385347       -0.30476658202679
C           -0.07027053578442       -1.31381814100537       -0.55955304836980
C           -3.91492206978937        3.08774931054219        0.57154005824974
C           -4.58436766483996        2.80108583959336        1.91351525009942
C           -3.45843157540671        4.54429127236074        0.52599509797885
H           -4.62172487831941        0.94206855388585       -1.32523027816947
H           -6.80266617045539        0.24523020526640       -1.84120498211719
H           -7.10738999344093       -1.20005647731573       -2.83681464888977
H           -5.60160246272148       -0.27649454157587       -3.05794616587417
H           -4.91920547762934       -3.70533349906834        2.42040023081847
H           -5.28240558127258       -4.96538362147670        1.21466850487661
H           -3.61314582273122       -4.37555654190507        1.39988628477973
H           -3.12085701815431       -2.18717848690851        2.15749701861725
H           -2.21416764198902        0.06411070805050        2.07959027869619
H           -2.98017971879239        2.43163364829063       -1.83820045590454
H           -1.61283393694282        3.26085096876769       -1.10688174049293
H           -1.77067399306926        0.26156448536896       -1.57770850652013
H           -0.98221183256865        1.43799737819099       -2.63313072976755
H           -0.73520336792137        1.65300397710081        0.81344371887638
H            0.68332329459210        1.98842154273163       -0.79737070426242
H            2.18578231827312       -0.84746395385972        0.67944023051761
H            2.34134806770710        0.82668417590341        0.21122360095436
H            2.87209070351903       -0.01345771032470       -2.35257301255715
H            2.78697547191372       -1.64574288260115       -1.71157133103282
H            4.73526553400922        1.48303571458538       -1.77436830704206
H            6.98306874247368        1.72595688101161       -0.87209658857115
H            8.57570967701165        1.84286099655183        0.85007668763365
H            9.24297621529397        1.16242152772858       -0.65628317141911
H            9.98533180713669        0.75454139413611        0.90880070552622
H            7.04294516522846       -4.21851083810116        1.69493132698384
H            5.40779146552625       -3.51860921431232        1.69433782089226
H            6.11721558966925       -4.12190033241410        0.17242956452754
H            4.48030576336456       -2.45931382137787       -0.16765045682187
H           -0.23810833787808       -1.60188603535576       -1.60032912197659
H           -1.04203737121293       -1.23826243492349       -0.06059027282670
H            0.51639319773261       -2.08908620431367       -0.07232911861846
H           -4.66579643675627        2.94940102955366       -0.21507530831323
H           -3.87451423426390        2.95656842045866        2.71610909733536
H           -4.94775524055763        1.77698141348665        1.95460121144550
H           -5.42747200849622        3.47358291993105        2.05799563150418
H           -2.69344915131177        4.71931338290334        1.27317705840431
H           -3.07319955430842        4.81573916935358       -0.45371275221097
H           -4.30309706892776        5.19449015888615        0.74501942948438
H           -0.73598945533341        2.87532200789645        2.82750005031411
