72
 energy: 34.427608374207 xtb: 6.6.1 (8d0f1dd)
N           -1.77380375371130        3.01517563867301        2.37557570022776
C           -1.70927825566615        2.26152026542343        1.37782659505374
C           -2.80589609407120        2.11310955057755        0.35631436532573
C           -3.35389254458832        0.69560112392062        0.40867462016397
C           -4.26568061902254        0.26242208811980       -0.55425779818354
C           -4.79376025291579       -1.01444578364940       -0.52679942122443
O           -5.69588053560895       -1.51149173407184       -1.42136583782470
C           -6.25471049290122       -0.63898784994177       -2.36928618964547
C           -4.40185310389019       -1.91196173628452        0.49008954824343
O           -4.96860029910722       -3.14935255930865        0.43195591838969
C           -4.68099625070759       -4.07167970623802        1.44974479037175
C           -3.50177213556342       -1.48306523014648        1.44496902990189
C           -2.98999793620258       -0.19130549044124        1.40471789822486
C           -2.13015590844471        2.35727947804035       -1.01198244885461
C           -1.18491741400607        1.23047711432582       -1.46584611296357
C            0.06486002694041        1.09669618001535       -0.64326218244159
N            0.64233651861155       -0.08213331938270       -0.29225027774546
C            1.90519297442549       -0.20365133015337        0.14521417967614
C            3.33078942098214       -0.78848004557758       -1.91253008333062
C            4.58419250364866       -0.61068652218859       -1.31526842457405
C            5.31341368816897        0.58030623253970       -1.46590445666410
C            6.53338139344199        0.75723348840376       -0.85019308524421
C            7.06576825245522       -0.23960081193211       -0.04737350949689
O            8.23725511124600       -0.15388352112696        0.65112326863557
C            9.00057553710641        1.01097428080793        0.51755751512561
C            6.36188402667888       -1.45609028360367        0.10356808566683
O            6.97896115261852       -2.38227286804134        0.89401659292102
C            6.36039825909300       -3.62697619470466        1.07309221027624
C            5.14979767657820       -1.62638811543446       -0.51279817307440
C           -0.10643729749218       -1.31443783166252       -0.46009564165800
C           -3.98278643029397        3.10354807552909        0.55422977172052
C           -4.71537609850736        2.83797893954166        1.86777921391468
C           -3.55480235678655        4.56782452113195        0.49095899167898
H           -4.56316598425784        0.93948092908174       -1.33756896098623
H           -6.73454277518928        0.22570495421298       -1.89666341806454
H           -7.00839036592211       -1.22250705041986       -2.89685249005613
H           -5.50478420018592       -0.28927772243694       -3.08626705536615
H           -4.97364248550960       -3.69184119419866        2.43412389341109
H           -5.26931961548929       -4.95851043430748        1.21861997686611
H           -3.61919717336880       -4.34189862300221        1.46514386379407
H           -3.19712936575647       -2.14085360737101        2.24362397571413
H           -2.31704620731667        0.12222396177141        2.18760606267077
H           -2.91080376659459        2.50016063633722       -1.76479105197022
H           -1.55612127398540        3.28157294068627       -0.96514769301598
H           -1.73810672776846        0.29200734406221       -1.49637346361892
H           -0.91355921321590        1.48458312531062       -2.49413467875875
H           -0.82397864365437        1.67331425307532        1.08519482685177
H            0.70641473364285        1.96969010277573       -0.57254187231589
H            2.17581603459525       -1.07979706498272        0.71129024909701
H            2.39736455360090        0.69629567617550        0.45227300910411
H            3.06815545333405       -0.12858123778651       -2.72172014354277
H            2.94577847405353       -1.78050426039020       -2.01460625498768
H            4.92010381051009        1.36377961792142       -2.09478648002594
H            7.06801806471382        1.68377632638044       -0.99429313631700
H            8.46392272655667        1.88974945159954        0.89130143237221
H            9.30180651939846        1.19464838640872       -0.51762540834610
H            9.89017993774819        0.84428292705423        1.12184230687777
H            7.01013655132456       -4.18104247645749        1.74790195610790
H            5.37052434517531       -3.53936871823664        1.53355144020157
H            6.26212382519259       -4.16537643127820        0.12401041112993
H            4.60576203818007       -2.55188623942657       -0.41488845938537
H           -0.23977824920825       -1.54938511630015       -1.51424831561108
H           -1.08994411695666       -1.23437411365109        0.00978010977483
H            0.44646944623307       -2.13218035519590       -0.00288386049575
H           -4.69411245687212        2.93310419441452       -0.26323295943236
H           -4.05139383618998        3.03623916602764        2.69713709531821
H           -5.05500603059552        1.80621336303494        1.92100942685325
H           -5.58145184750099        3.49260113743734        1.95275880011517
H           -2.83571819893220        4.77370429842559        1.27219118310828
H           -3.12424552841209        4.81847265503055       -0.47498713658375
H           -4.42086716484634        5.20817792678741        0.64933454273026
H           -0.95399485839931        3.04513116766450        2.96636437726814
