72
 energy: 36.950481088922 xtb: 6.6.1 (8d0f1dd)
N           -1.96054578914970        3.19630484694141        2.43487067913596
C           -1.83236555291499        2.34019975301143        1.52710330246547
C           -2.84706556088612        2.14586697058929        0.43255314771774
C           -3.37967799025497        0.72266753554334        0.47073260479539
C           -4.23154232890815        0.27198321626248       -0.53919349955278
C           -4.75413767996913       -1.00595336732612       -0.51977755806116
O           -5.61034112365047       -1.51581166628003       -1.44944966199120
C           -6.15430457559375       -0.65423583097818       -2.41770887321478
C           -4.40627644999478       -1.89274022610200        0.52461665194052
O           -4.95132878342106       -3.13647098121189        0.44290936636011
C           -4.69420948761978       -4.05250791884631        1.47664232628837
C           -3.56173254871753       -1.44533163223475        1.52132304936401
C           -3.06358685801738       -0.14712971164660        1.49713811431456
C           -2.08438904172196        2.39175987178877       -0.89453536276283
C           -1.15665902592909        1.24553231813833       -1.33712165513450
C            0.07771364378579        1.07214728689233       -0.51597756420667
N            0.60238432513457       -0.07485508438906       -0.11762011646882
C            1.76784352744195       -0.20634838584645        0.50957635228878
C            3.62590166918233       -0.97113961688378       -2.38533455990242
C            4.76714163467163       -0.74172947439790       -1.64768780573691
C            5.49521440081928        0.46844154095543       -1.76022425139032
C            6.63676837192687        0.69210953765204       -1.02641803498304
C            7.10648260648734       -0.25880285309854       -0.12644286215374
O            8.17046000949893       -0.11011764494004        0.70941977866154
C            8.93275833378163        1.06847290882954        0.64760007063747
C            6.42002557044728       -1.49914721425371       -0.01930259048760
O            6.96212490582894       -2.36855303290535        0.87547414731001
C            6.38454030638831       -3.63868694621183        1.01658902136773
C            5.28891233615003       -1.72386566323082       -0.75623718818380
C           -0.15004953902981       -1.29689399902953       -0.35635965028970
C           -4.05453670510466        3.11905714523969        0.53553428788028
C           -4.86371030369233        2.87241268851515        1.80898713344965
C           -3.66421854900352        4.59351428355862        0.45487362978186
H           -4.49370003705370        0.93563219474523       -1.34710702761729
H           -6.65553906791827        0.20592711775939       -1.96070464216647
H           -6.88921431684019       -1.24760794595838       -2.96056880573692
H           -5.39184441136612       -0.30082685086121       -3.11905795551071
H           -5.03843293325006       -3.67712347181723        2.44580831377747
H           -5.25683126322930       -4.94752518167530        1.21781039298450
H           -3.62980086882684       -4.30371518983641        1.54126101459503
H           -3.29029691434380       -2.08957155299950        2.34247805280443
H           -2.44115446206846        0.18062979917200        2.31592499017446
H           -2.81954004613287        2.56464525525025       -1.68442514081065
H           -1.49485840153750        3.30352255383346       -0.80146137937323
H           -1.73554315626913        0.32527054125979       -1.39906282724545
H           -0.83468391832245        1.50486082436161       -2.34790637718958
H           -0.94016178612283        1.70601073148321        1.39250664709020
H            0.68246677014003        1.94548599727671       -0.32927958228046
H            2.02621123402452       -1.14745448644028        0.95202325045173
H            2.32261010715543        0.66747097803184        0.78425679829129
H            3.30474336131570       -0.26942047980404       -3.13556262515724
H            3.14279059761480       -1.93104688114814       -2.37201343436628
H            5.14676729211904        1.21599922877045       -2.45687257594141
H            7.16238883958929        1.62785428226435       -1.14314683483100
H            8.33136409947875        1.93912767086469        0.93314438311120
H            9.36223839067440        1.23357739165278       -0.34481411961289
H            9.74546002322274        0.93796080831443        1.36331056830555
H            6.96614942224853       -4.13121399435089        1.79223555586474
H            5.34103739672165       -3.57728806804047        1.34241971896000
H            6.43724588808710       -4.21122794717613        0.08268349644157
H            4.75969954344371       -2.66108041553326       -0.69289212426885
H           -0.24120684005228       -1.47972372074998       -1.42458307949737
H           -1.14803238990522       -1.22099527131176        0.08419405993456
H            0.37351458938336       -2.13887346737348        0.08961736293266
H           -4.70977320161822        2.90453551946790       -0.31959310430967
H           -4.26839984241057        3.11651168731947        2.67994008791001
H           -5.18029887591289        1.83406436113980        1.87450106612186
H           -5.75284717675486        3.50198874179592        1.81439811642384
H           -3.00208892966034        4.84746820007315        1.27362835380919
H           -3.18411569143024        4.83027699417155       -0.49052314434348
H           -4.55835898693247        5.20950767542984        0.53717922707945
H           -1.20599564951105        3.25678743206674        3.11741135266005
