72
 energy: 35.527693016924 xtb: 6.6.1 (8d0f1dd)
N           -1.80368342491730        3.03682232386963        2.38983883360001
C           -1.72498860298420        2.27510848932913        1.39912697462502
C           -2.81157002573950        2.11877997678614        0.36723066901901
C           -3.35751067035078        0.70040768344406        0.41729462837868
C           -4.26086208315607        0.26438357962848       -0.55240687971991
C           -4.78741745902746       -1.01314024459798       -0.52625159090283
O           -5.68340978087781       -1.51228661850052       -1.42549167315951
C           -6.24060184840259       -0.64175186995024       -2.37615768665099
C           -4.40232868809360       -1.90860889746578        0.49510911109069
O           -4.96622271920912       -3.14707032542589        0.43352942617718
C           -4.68297772883638       -4.06857066796589        1.45343899774714
C           -3.51000366874894       -1.47725252613435        1.45598892157549
C           -3.00060954015415       -0.18451668304281        1.41769462495176
C           -2.12292161309394        2.36260250632180       -0.99500480407521
C           -1.17820779353110        1.23246788412689       -1.44644460152899
C            0.07153087183987        1.08703033433075       -0.62413105252909
N            0.64144832644689       -0.08419476564136       -0.26076887447064
C            1.88778790587573       -0.21408897954052        0.20649777455860
C            3.38235103510102       -0.81725488400615       -1.99078360425671
C            4.60981481367850       -0.62939740194264       -1.36387825151189
C            5.33975452013264        0.56520523573604       -1.50852741409589
C            6.54828369332458        0.74866498275514       -0.87592857955927
C            7.07172224608675       -0.24210556453558       -0.05882120628462
O            8.22799162363978       -0.14761730216797        0.65966045051171
C            8.99104201166433        1.01919927605914        0.53658144497742
C            6.36972025679580       -1.46182946130628        0.08607227569121
O            6.97694831526808       -2.37947257205608        0.89157854740179
C            6.36440599538594       -3.62822930909802        1.06537110651054
C            5.16904610500723       -1.64046351352226       -0.54687996061478
C           -0.11108217128335       -1.31359356613898       -0.44345754636017
C           -3.99364268904456        3.10592089245118        0.55140511818475
C           -4.73717593181374        2.84344587340241        1.85961072965113
C           -3.57091887954266        4.57161898249431        0.48548455029805
H           -4.55346900255231        0.93937007379306       -1.33924703336562
H           -6.72358903798614        0.22253459929441       -1.90602212251416
H           -6.99173532081198       -1.22641477684918       -2.90626413081484
H           -5.48892458751419       -0.29148846962685       -3.09095628458809
H           -4.98290446686411       -3.68968637572940        2.43598130421748
H           -5.26753008725350       -4.95700219815612        1.21899815029998
H           -3.62070197596951       -4.33639272724185        1.47584871252077
H           -3.21002721811856       -2.13322755293475        2.25783972247570
H           -2.33463537173268        0.13154675626444        2.20560255807857
H           -2.89805926563705        2.51089612527709       -1.75268656625953
H           -1.54661742823231        3.28490192254072       -0.94132187488922
H           -1.73402051650935        0.29646996475501       -1.48370673690741
H           -0.90109997025598        1.48874095045296       -2.47245372903359
H           -0.83893149352776        1.67945797617186        1.12859092913751
H            0.70699988775334        1.96267188846727       -0.53651950283629
H            2.15606494655363       -1.11265551619851        0.73291356152215
H            2.40160374154939        0.68060727813007        0.50163867065424
H            3.10275206744186       -0.14659543865843       -2.78349688998565
H            2.97311209042383       -1.80153709634206       -2.06469255463182
H            4.95218663197569        1.34267032800237       -2.14787898123057
H            7.08170161048526        1.67610272570024       -1.01595582695266
H            8.44428960336060        1.89647899421704        0.89857484504670
H            9.31020498481960        1.20109471353670       -0.49337103956635
H            9.87096385416819        0.85890235962981        1.15658582335233
H            7.00455124288902       -4.17404173712824        1.75565954292610
H            5.36604655347640       -3.54439086493651        1.50660044148792
H            6.28758915858511       -4.17208198621885        0.11779191873670
H            4.62641458845459       -2.56704420180651       -0.45436665480631
H           -0.24002002667023       -1.53876215737137       -1.50012797034717
H           -1.09553330306801       -1.23204120888207        0.02341949362769
H            0.43522812319216       -2.13862708054786        0.00863023537942
H           -4.69788252110794        2.92973176911373       -0.27127155488819
H           -4.08208052301412        3.04842090783117        2.69415933505677
H           -5.07323787815292        1.81068087975753        1.91478693091374
H           -5.60686945860276        3.49462981888604        1.93374857382720
H           -2.85989467124693        4.78338859854974        1.27234524329433
H           -3.13315673892566        4.81952240922821       -0.47772870699331
H           -4.44090493812194        5.20913979693147        0.63314986783723
H           -0.98965667478575        3.07426062070862        2.98847018752719
