72
 energy: 15.369200107411 xtb: 6.6.1 (8d0f1dd)
N           -1.68281615838811        2.94674309643121        2.33206459391683
C           -1.66135828092516        2.21940319164357        1.31165817410528
C           -2.78844429406856        2.09587615127445        0.32327273924667
C           -3.34368240910738        0.68103128660784        0.38315259799043
C           -4.28014692044976        0.25702252822147       -0.55989368456971
C           -4.81226349725566       -1.01788942062600       -0.52806878058103
O           -5.73463320591487       -1.50767776701565       -1.40635166489689
C           -6.29796366950952       -0.63117190025086       -2.34791853265888
C           -4.40152100549048       -1.92173862657726        0.47572063589342
O           -4.97662429837977       -3.15662150734548        0.42664903931769
C           -4.67552658165745       -4.08088833195911        1.43807307453907
C           -3.47821646911799       -1.50070340804513        1.41205171015876
C           -2.95960676206066       -0.21183834661558        1.36614976468117
C           -2.15018024414922        2.34040990527053       -1.06348233260996
C           -1.20317335776340        1.22189485324667       -1.52805590018101
C            0.04951502920065        1.11932091863758       -0.71350850176895
N            0.65734069330080       -0.09179649287420       -0.38126243244195
C            2.02290000834635       -0.20955238247645       -0.09097822809630
C            3.13141345202379       -0.68177188995277       -1.62059635780086
C            4.51207295431496       -0.55019464925049       -1.15529712617093
C            5.23644209333259        0.62095083454982       -1.33972157785305
C            6.49326365107360        0.77872086585973       -0.77768379547161
C            7.05005480610889       -0.23266045861897       -0.01495428317373
O            8.26028581814908       -0.17409453870059        0.62074206553846
C            9.02703998194240        0.98628891898128        0.46108883028347
C            6.34075293894370       -1.44026996577209        0.15602698321516
O            6.98097265293952       -2.38642828212548        0.90505048324477
C            6.34977244893792       -3.62389822508998        1.09727962429575
C            5.09244017319884       -1.58280958065502       -0.40938162557717
C           -0.08962860521320       -1.31787691410691       -0.51144200378473
C           -3.94957725536835        3.09590940743122        0.56349814132264
C           -4.65045665253546        2.82091303269274        1.89194168403005
C           -3.50771857014253        4.55641588662018        0.50898825742731
H           -4.59396557247238        0.94075062947454       -1.33116098629102
H           -6.76960339722435        0.23459873139280       -1.86925110267778
H           -7.05866362783599       -1.21232641158995       -2.86754776418538
H           -5.55380578644725       -0.28338343144095       -3.07213732054768
H           -4.94626529710687       -3.69833366761573        2.42768989227756
H           -5.27533376175245       -4.96253592081244        1.21685248948492
H           -3.61553846813192       -4.35827613494830        1.43261887315379
H           -3.15874867662649       -2.16400233998787        2.20038205696521
H           -2.26574594699981        0.09380356940618        2.13369468212322
H           -2.94680189819650        2.46711595252471       -1.80136116419594
H           -1.58456714648772        3.27114364715988       -1.03573992758532
H           -1.75192775746370        0.27891074945443       -1.53796148941718
H           -0.95111252857204        1.46619643133078       -2.56480741249497
H           -0.77819923575646        1.65793518981356        0.94668935177907
H            0.70194108757344        1.98245982059292       -0.68794626893414
H            2.20831386700542       -0.97233136167048        0.67058031813243
H            2.37080905754918        0.74381561265956        0.31338288830859
H            2.96179156260622       -0.07311726297009       -2.51353959690080
H            2.86459218229955       -1.70368297025254       -1.85509352921925
H            4.82663891242248        1.42385499189080       -1.93442987100990
H            7.02855075154801        1.70323974289015       -0.93469517810134
H            8.52108827538898        1.86694206848331        0.87105837570123
H            9.27626022537004        1.17667176106350       -0.58679644661662
H            9.94249678806424        0.80008514888591        1.01862265474491
H            7.02892659482854       -4.20060888285829        1.72342931864123
H            5.38794499793998       -3.52760527537864        1.61392766046409
H            6.19028571392944       -4.14395233165014        0.14600367908210
H            4.54166934660408       -2.50284772087437       -0.28991227715135
H           -0.24089424028918       -1.57954663085233       -1.55924600842053
H           -1.06900271602131       -1.23792519358002       -0.02892808088506
H            0.47923293726751       -2.11401476799198       -0.03681359059357
H           -4.68139035875726        2.94214429680626       -0.23842287621698
H           -3.96239925459689        2.99842525131714        2.70734827448199
H           -5.00191572006338        1.79283657810607        1.93929666050737
H           -5.50527568742777        3.48512885709984        2.00733116930591
H           -2.76495788695737        4.74658000583072        1.27288577220430
H           -3.10003121641631        4.81694104001447       -0.46451063453062
H           -4.36322383907733        5.20231176688133        0.69856234397465
H           -0.84291865735672        2.95894225018285        2.89773432959522
