72
 energy: -99.371617501001 gnorm: 0.006640164898 xtb: 6.6.1 (8d0f1dd)
N           -2.21499688879260        3.25873872719878        2.18759575421362
C           -2.40160794075227        2.06256687465941        1.77289863684601
C           -3.56655068111323        1.65714379777460        1.06449291313386
C           -3.79887733540363        0.27953621948709        0.77033305305490
C           -4.81871322076827       -0.13432412776034       -0.12315492647280
C           -5.13477679867728       -1.46023617944677       -0.32826119011333
O           -6.11420059231781       -1.91352625537125       -1.13526031620217
C           -6.98453899907312       -0.99307914165736       -1.75273982798149
C           -4.40410980997507       -2.47846168426428        0.35377635205925
O           -4.80779631398576       -3.73525053027119        0.12813415322432
C           -4.19601540857584       -4.79928722549992        0.82233358243015
C           -3.35939430289371       -2.08807022793017        1.18860463191105
C           -3.06549408029206       -0.75719498764929        1.39210806795144
C           -0.72706969046448        2.44367200818303       -1.29918963670061
C           -1.24959258457496        1.39420747671260       -2.23440017716868
C            0.14647045319421        1.28230423593141       -1.71055954259420
N            0.50311994251638        0.31781225223054       -0.72114503482779
C            1.87093943026544        0.37756977215469       -0.28027808848029
C            2.88467025433472       -0.22297867677011       -1.28644244989264
C            4.29319896529568       -0.06646601363036       -0.80389422769729
C            4.98396923781266        1.12283097783176       -1.00546796626153
C            6.29729812905031        1.26246839309995       -0.59058886741981
C            6.95550529467887        0.21427087087302        0.04204903438705
O            8.23264451141648        0.22688344625488        0.45749906023354
C            9.02878905778670        1.36470332129746        0.21567234908691
C            6.24828452612485       -0.99987665616189        0.27919205081871
O            6.95191191915296       -1.96168582208553        0.90286866004222
C            6.34644075299876       -3.20871477984363        1.15076534275000
C            4.93220204116145       -1.11310371476540       -0.14512498484985
C           -0.09515376096451       -0.99153825104287       -0.80979221370994
C           -4.56111173775830        2.72755664812092        0.70004340517710
C           -5.17992810970658        3.32168868904739        1.97050880172367
C           -3.92628122173037        3.83196528851098       -0.14938063861315
H           -5.36569612045006        0.60841353493178       -0.67697318004609
H           -7.46379790445657       -0.34103182448211       -1.01636104936064
H           -7.74311462235889       -1.59627229856372       -2.24815318230922
H           -6.46291068986077       -0.38517585526345       -2.49896418126533
H           -4.27327497012908       -4.66666005793602        1.90554149603027
H           -4.74330835650588       -5.69293828179037        0.52813759616871
H           -3.14446853017710       -4.90883806742194        0.54012281189530
H           -2.77879987845521       -2.83457817448846        1.70681793992946
H           -2.27630188622954       -0.52574234772527        2.08816909421583
H           -1.10765440207752        2.41896599924278       -0.29449543200795
H           -0.49700655798847        3.42807127829643       -1.67984544973666
H           -2.00948042354694        0.72146531081287       -1.86724589266875
H           -1.36133357917253        1.65071118607641       -3.27657033346117
H           -1.64449573553500        1.28809855818540        1.95281981284739
H            0.94334030490288        1.51740321538901       -2.41062641918108
H            1.95150432143574       -0.16465424910759        0.66635470620426
H            2.12333944520285        1.42492360034103       -0.09749928926665
H            2.77103999687075        0.29006271377812       -2.24322214082026
H            2.65392609856939       -1.27913797444820       -1.43158174801703
H            4.49991689827695        1.94714937367350       -1.50650852117828
H            6.80997522496322        2.19275173783453       -0.77306295462307
H            8.64044099627907        2.24381837335466        0.73833088964099
H            9.10423169543881        1.57881241745368       -0.85460788679621
H           10.01495866537450        1.11952068489822        0.60540204885579
H            7.10959902258458       -3.81412366875416        1.63574275656451
H            5.48476608131419       -3.10907407971425        1.81829869470555
H            6.03568242663441       -3.69453298555125        0.22068223034507
H            4.39194381606845       -2.03253458958990        0.01675874142440
H            0.05333075006309       -1.45515588257831       -1.79240318541291
H           -1.16794037617580       -0.91948846936681       -0.62461507164821
H            0.33830944637697       -1.63470072671428       -0.04647460936387
H           -5.37955724307910        2.29194377810953        0.12411464284786
H           -4.41534703893100        3.82422129025988        2.55430686151734
H           -5.63539305798347        2.54053623500912        2.57557117008452
H           -5.94646667400030        4.04088371581837        1.69727418560216
H           -3.13224989829641        4.31691964870751        0.41134198166483
H           -3.51509811866287        3.42156472805078       -1.06938479276320
H           -4.67638652226765        4.57604006818089       -0.40304487013314
H           -1.34894204495876        3.45437688235581        2.67392161208183
