  25
        -42.19904344
 C          3.2146776379        1.0568579259        0.0005404370
 N          2.3329895827        0.0699998642       -0.0060358624
 C          2.5738230040       -1.2622682978       -0.0349095784
 N          1.3891178644       -1.9547330434       -0.0293628261
 C          0.3790262941       -1.0732378255       -0.0032512670
 C          0.9346847904        0.2224277576        0.0104563255
 C          0.0827392594        1.3245548383        0.0187387516
 O          0.5170879444        2.5784351353        0.0525556841
 N         -1.2678860598        1.0573190622       -0.0057363900
 C         -2.2055673596        2.1721199026       -0.0523365678
 C         -1.8414990464       -0.2242344633       -0.0049539734
 O         -3.0307363915       -0.3817326407       -0.0203177575
 N         -0.9595772186       -1.2990168596        0.0177870397
 C         -1.4903206025       -2.6480339245        0.0514414278
 H          2.8691933089        2.0690599477        0.0313354430
 H          4.2599294641        0.8214655522       -0.0243430873
 H         -0.1993724871        3.2395916082        0.0810519126
 H          3.5422512179       -1.7105124225       -0.0465703083
 H         -2.0298801721        2.7849895364       -0.9357801220
 H         -3.2075887606        1.7502533291       -0.1191271819
 H         -2.1477534685        2.7740761892        0.8589191264
 H         -1.1483448113       -3.1646599258        0.9491215719
 H         -1.1858837733       -3.2011787880       -0.8379562206
 H         -2.5764500757       -2.5769301005        0.0714691671
 H          1.3212770047       -2.9600145109       -0.0452959228
