25
 energy: 0.000000000000 xtb: 6.6.1 (8d0f1dd)
C            3.23720163006194        1.16630919979326        0.08434469647475
N            2.29877817382611        0.07527477071623        0.03981603040599
C            2.58028210190900       -1.21425402444508        0.03006176031096
N            1.43813958087363       -1.93419271955128        0.00098261760884
C            0.39035688448383       -1.05887472636071       -0.00790371836672
C            0.93510056364412        0.21347819449412        0.01709077491437
C            0.09450143893243        1.40504303904423       -0.00410947031874
O            0.49712751527797        2.54126714362870       -0.00342325688240
N           -1.25076640035757        1.06271879480407       -0.03085478223738
C           -2.21907211982101        2.15522099834493       -0.05001256985998
C           -1.81739487048744       -0.20012725993278       -0.04692818574614
O           -2.99983886758376       -0.37846417018721       -0.07008878229737
N           -0.92618586207120       -1.30210215599479       -0.03682761578324
C           -1.46982264913417       -2.64643102187190       -0.06029820460571
H            3.71247264356769        1.21471455160235        1.06488849150277
H            4.00791497605742        1.03430808813993       -0.67357694370751
H            2.69910007168542        2.09770118228144       -0.09130154882931
H            3.56654120610678       -1.63682992603973        0.04233140067262
H           -1.67107961066214        3.09322851271934       -0.02552706933167
H           -2.82428953597071        2.09428624779827       -0.95318082946668
H           -2.87644029173232        2.07745725625962        0.81450067533302
H           -1.17061996399332       -3.19584890659852        0.83242232437030
H           -1.14560257411436       -3.17511610292205       -0.95688275822323
H           -2.55549792440841       -2.55659984320617       -0.07459039797972
H            1.38130855184625       -2.94313852034425       -0.01389874181052
25
 energy: -3.084313514430 xtb: 6.6.1 (8d0f1dd)
C            3.24620501340948        1.19098285394529        0.08880134805842
N            2.31224351412884        0.10738223923126        0.02822468899627
C            2.60967544824381       -1.21760581770050        0.00821220682042
N            1.44252791838453       -1.93219728961069       -0.02366872693411
C            0.40387127025312       -1.05719919244221       -0.01258781763422
C            0.93390500598840        0.22647904256945        0.00776479314620
C            0.10708750294324        1.40075771368511       -0.00506525792400
O            0.50331861575353        2.56665343285348        0.00436673315280
N           -1.25297903354999        1.05356666077563       -0.03822597553439
C           -2.21247800125931        2.15329038110879       -0.04698356960631
C           -1.81267529924177       -0.20184303008303       -0.06300147264513
O           -3.00940302371915       -0.38006956540444       -0.09143647109065
N           -0.92768281099993       -1.31281473323138       -0.02557957512766
C           -1.48323870922159       -2.66309852759374       -0.02553875643393
H            3.72715297524251        1.22406363827250        1.07006776877860
H            4.01373197603685        1.06778086218934       -0.67668048541054
H            2.69959550774839        2.11807707114676       -0.07260653699505
H            3.59037218981836       -1.63622376339070        0.01741878236720
H           -1.65385065974814        3.08694452763141       -0.01851320587162
H           -2.82193744105784        2.10725370449611       -0.94893044913871
H           -2.86749646179666        2.08038259441908        0.82063512072261
H           -1.36710615743648       -3.29707661363022        0.90414729810501
H           -1.09135983169306       -3.21967773051963       -0.87726451091083
H           -2.56147200003492       -2.54124496180824       -0.14551239699291
H            1.38420715974403       -2.93553489473743       -0.05100963575017
25
 energy: 6.644441471893 xtb: 6.6.1 (8d0f1dd)
C            3.25577934391532        1.21968751683329        0.09490531919859
N            2.32501132903634        0.14352030686169        0.00623193018338
C            2.64164684634476       -1.21260917880473       -0.03073244395703
N            1.45281290266534       -1.92074152102929       -0.06370390846229
C            0.42035281172934       -1.05829619440683       -0.02186983427574
C            0.93077203620291        0.24039355411938       -0.00527755917457
C            0.12531350680715        1.39046181638042       -0.00460273251020
O            0.50248050706256        2.58029758807321        0.01758161507830
N           -1.25508323012659        1.04161914362818       -0.04627014177695
C           -2.20079217521365        2.15274377728826       -0.04334823517907
C           -1.79986226448488       -0.20681103707633       -0.07125700032057
O           -3.00545233576259       -0.38167457725879       -0.12742773407101
N           -0.92795976159492       -1.33531631880780        0.00013219690972
C           -1.51073691671519       -2.68668106468986        0.02251507289426
H            3.74700376485405        1.23215845757885        1.07487977697852
H            4.02129445384802        1.12004681089168       -0.67941343934502
H            2.70317524497700        2.14715764903073       -0.04062957308929
H            3.61833093463323       -1.62140192296343       -0.02273313952701
H           -1.62754187129777        3.08004210661026       -0.00951830386174
H           -2.81741501928164        2.12748197817584       -0.94194596261480
H           -2.85155401432192        2.08640913390316        0.82892853840077
H           -1.66879721557192       -3.41484192602662        1.00899026367133
H           -0.99391203404220       -3.29558587485883       -0.74014948100470
H           -2.57351053031632       -2.51858516511837       -0.27009799026405
H            1.40085835458980       -2.92044645616205       -0.10815333773353
25
 energy: 19.551646507451 xtb: 6.6.1 (8d0f1dd)
C            3.25976032506937        1.23980288432561        0.10460009869202
N            2.33115170027839        0.16260773486203       -0.01734418077833
C            2.65846677507265       -1.20208116398690       -0.07249428054526
N            1.46672332903076       -1.91000213021511       -0.10350333232254
C            0.42620437076408       -1.06445079615513       -0.03157061946960
C            0.92936803036762        0.24427915500990       -0.01549599632270
C            0.13655144430769        1.38885665449533       -0.00073384862019
O            0.50092138290806        2.58513255369530        0.03122131705567
N           -1.25465629988167        1.03798611751895       -0.05330337568930
C           -2.18818534885135        2.15758885693501       -0.04331489420040
C           -1.79194473443298       -0.21038816154534       -0.07979936226931
O           -2.99885411898169       -0.38055046189506       -0.16625504030618
N           -0.93270883148352       -1.35665173633745        0.02507523209920
C           -1.54733097730268       -2.70846264415991        0.06421968162313
H            3.75857938371896        1.22950380725871        1.08275718022842
H            4.02614294548897        1.17161880781606       -0.67457243900512
H            2.70722071418652        2.17306901795409       -0.00038389567686
H            3.63879618173799       -1.60080381980786       -0.06475319786612
H           -1.60033731076034        3.07683621775522       -0.00399490438074
H           -2.80752354651506        2.14967908921056       -0.94024233001395
H           -2.83554415150676        2.09568843307029        0.83181737031314
H           -1.89962791079451       -3.48319601038312        1.08026304234255
H           -0.92556893716342       -3.36951765079040       -0.59186618422078
H           -2.57300869281346       -2.52765805972922       -0.36573437276541
H            1.42761894549262       -2.90985809272957       -0.16755777175404
25
 energy: 27.427709790885 xtb: 6.6.1 (8d0f1dd)
C            3.25909621209411        1.24978722738233        0.11576265893887
N            2.33269545538271        0.16862591100890       -0.03823419291072
C            2.66227397396592       -1.18864132775387       -0.10742429953484
N            1.47990396236885       -1.90012966633718       -0.13459931946879
C            0.42512220316095       -1.07015811475540       -0.04075902833125
C            0.92981810345992        0.24249607535813       -0.02054791880935
C            0.14195442958003        1.39315748662470        0.00391496117742
O            0.50147780451481        2.58330119021448        0.04240422082089
N           -1.25192692300910        1.04049074312489       -0.05732783650120
C           -2.17773739800294        2.16491006405908       -0.04779428953601
C           -1.78828258780873       -0.21119074355989       -0.08585220895171
O           -2.99086208155651       -0.37760856101094       -0.20079283914303
N           -0.93752328781630       -1.36991423123863        0.04311434507287
C           -1.57397714176161       -2.72362928896806        0.08993549549675
H            3.76050935101015        1.21796569367359        1.09241118212729
H            4.02677791105446        1.21011781758188       -0.66451983706740
H            2.70834588247355        2.18814897286692        0.03690611498069
H            3.64867108853836       -1.57952263590179       -0.09693475685331
H           -1.57997444445137        3.07773796220449       -0.00529562302107
H           -2.79570471240915        2.16783004744108       -0.94482006391440
H           -2.82438592385520        2.10730826652088        0.82762620819066
H           -2.04031906468275       -3.53062806161087        1.11048326000739
H           -0.91163544431158       -3.41004639099370       -0.47245765258771
H           -2.54742251616551       -2.55995673372171       -0.40162437785879
H            1.45531981616311       -2.90142310003737       -0.21654030617598
25
 energy: 30.665733430357 xtb: 6.6.1 (8d0f1dd)
C            3.25577627274544        1.24738978077752        0.11679447424605
N            2.33060644691201        0.16474033183640       -0.05268854500485
C            2.65466948403803       -1.17817235840849       -0.12760222125857
N            1.48514870216890       -1.89422089775720       -0.14448806503173
C            0.41962840069216       -1.07205994791548       -0.04126511539568
C            0.93026186247968        0.23933980695375       -0.01679708790823
C            0.14227999852823        1.39849668414081        0.00797247559848
O            0.50404247447056        2.57933673275285        0.05126759990466
N           -1.24866266012675        1.04482968302015       -0.05373102294451
C           -2.17392258008117        2.16958969120321       -0.04638832086884
C           -1.78941690171009       -0.20949378888548       -0.08918315188693
O           -2.98583122863461       -0.37489708319287       -0.21775715164000
N           -0.93989041367510       -1.37089524530101        0.05179477177543
C           -1.58097177733675       -2.72695758562899        0.09724720811490
H            3.75734584689675        1.20310695203088        1.09117751736561
H            4.02130450154452        1.21942492854341       -0.66339759863898
H            2.70577111393899        2.18597449457387        0.04948764774219
H            3.64487786992762       -1.56686792874946       -0.11429086921129
H           -1.57527760564237        3.08103535658792       -0.00412628757678
H           -2.79020919587010        2.17464935908059       -0.94367157011540
H           -2.82082631796899        2.11443287839492        0.82857524438434
H           -2.11277104195514       -3.53591286853122        1.12970347243438
H           -0.87872600069791       -3.42346121733616       -0.38311274064561
H           -2.51286969559188       -2.58441389321911       -0.46055933762686
H            1.46987711288417       -2.89596526279889       -0.23792742966450
25
 energy: 30.014000150892 xtb: 6.6.1 (8d0f1dd)
C            3.25360164736309        1.24211205988965        0.11542916408792
N            2.32776669110462        0.15961720178341       -0.05854325803812
C            2.64539217480146       -1.17333026148574       -0.13653571900966
N            1.48313719685912       -1.89297163869585       -0.14428821890808
C            0.41399312130165       -1.07135873926580       -0.04124967381790
C            0.92946305941244        0.23794453274034       -0.01120016282152
C            0.14044746121134        1.40023900109210        0.00882456050796
O            0.50598401446557        2.57659261881982        0.05531535344120
N           -1.24652987910655        1.04716282457137       -0.04810690066948
C           -2.17338258910777        2.17161539839583       -0.04499475536911
C           -1.79286519607439       -0.20695667999325       -0.08612989070252
O           -2.98554376125203       -0.37181479472612       -0.22391407728835
N           -0.94174320465871       -1.36604997261672        0.05252656323220
C           -1.57801790483110       -2.72282417559013        0.09114362808604
H            3.75456507540906        1.19401689763235        1.08857988256632
H            4.01789081263377        1.21516656641110       -0.66441186977863
H            2.70412056527256        2.18011150838504        0.04991284138564
H            3.63619943798545       -1.56449377385446       -0.11650257316007
H           -1.57683541358207        3.08428382791554       -0.00430588508853
H           -2.78919030531976        2.17389742333318       -0.94258623825030
H           -2.82080969294753        2.11780513323837        0.82961707855322
H           -2.12155945766030       -3.52464614144749        1.12447123329458
H           -0.86140195024856       -3.41794847170325       -0.33841758151919
H           -2.48238689026284       -2.60488937559337       -0.48727009273869
H            1.46991965516769       -2.89425236706398       -0.24032951184765
25
 energy: 28.776266543887 xtb: 6.6.1 (8d0f1dd)
C            3.25268995907425        1.23798544923181        0.11170429946858
N            2.32569876101614        0.15668769129135       -0.06117589840555
C            2.63975925995793       -1.17376471995572       -0.14279146487221
N            1.47844435994961       -1.89499204932054       -0.14154935168879
C            0.41006112549551       -1.07044091332535       -0.03946036439314
C            0.92776574867498        0.23785097931490       -0.00702839874798
C            0.13822252691744        1.40003417841333        0.00933426431821
O            0.50711391136839        2.57670620145130        0.05722463631672
N           -1.24664195894762        1.04829977019651       -0.04329077431341
C           -2.17467295840148        2.17271987100278       -0.04100078611432
C           -1.79666609295242       -0.20437211310157       -0.08480574221839
O           -2.98845103766855       -0.36902631757926       -0.22284149560979
N           -0.94432353943721       -1.36105511240129        0.05269236177291
C           -1.57428302857837       -2.71779318928664        0.08661710222757
H            3.75360649721536        1.18944865334118        1.08450407196383
H            4.01614829420186        1.20784099297861       -0.66872604530879
H            2.70328469918068        2.17564195762044        0.04485355827822
H            3.62935977014903       -1.56870880207286       -0.11517147636969
H           -1.57988719495469        3.08673958160039       -0.00119933912042
H           -2.79094378043095        2.17226383143574       -0.93859641482488
H           -2.82187377998603        2.11850471051720        0.83382917844184
H           -2.12258384664679       -3.50248708568551        1.12558627662917
H           -0.82661770421455       -3.41685722189465       -0.30241890279211
H           -2.46667241991466       -2.61651579803296       -0.53154754934548
H            1.46367709686833       -2.89568194356724       -0.23770784914481
25
 energy: 27.124590170868 xtb: 6.6.1 (8d0f1dd)
C            3.25273416489399        1.23776195129382        0.11170525010080
N            2.32541907888108        0.15659012070242       -0.05979155318190
C            2.63997548833640       -1.17577430696320       -0.14455792666851
N            1.47651428031630       -1.89732393203314       -0.14041564023237
C            0.41006162409079       -1.07067774503341       -0.03946511557828
C            0.92710915212958        0.23778142862553       -0.00664547680306
C            0.13689227207609        1.39816351210175        0.00883265070924
O            0.50671623587419        2.57650860601159        0.05535293759087
N           -1.24746353372472        1.04737707591385       -0.04259048796174
C           -2.17547013976793        2.17221462983529       -0.04120450609838
C           -1.79767785492819       -0.20454847617901       -0.08356592243950
O           -2.99012951800822       -0.36948641360443       -0.21926830447350
N           -0.94501750883772       -1.36010770480443        0.05282346764605
C           -1.57249763359137       -2.71620813696510        0.08371328089721
H            3.75299480677247        1.19087164067092        1.08527611865529
H            4.01727986689379        1.20556474946314       -0.66843523105354
H            2.70332880530269        2.17566191579416        0.04288459245005
H            3.62835761268608       -1.57273814190389       -0.10991701262442
H           -1.58066924212506        3.08643725887515       -0.00164054073657
H           -2.79160903946497        2.17049744891621       -0.93913150838581
H           -2.82297504779949        2.11793245767371        0.83343745364258
H           -2.10666401339052       -3.49409764049678        1.11642559414177
H           -0.83250130160374       -3.40819194787057       -0.30370926297379
H           -2.46220938393980       -2.61729143250100       -0.52775996641674
H            1.45971549686447       -2.89788831535060       -0.23531899405848
25
 energy: 25.895553119030 xtb: 6.6.1 (8d0f1dd)
C            3.25277589036447        1.23807965138586        0.11175250832838
N            2.32521883349503        0.15724934016570       -0.05887977864978
C            2.64130150097387       -1.17782996568767       -0.14774285816819
N            1.47504693393379       -1.89888719114580       -0.14073780700742
C            0.41032433656059       -1.07106856116347       -0.03952167340814
C            0.92647892022768        0.23752837736581       -0.00742173658912
C            0.13601063767702        1.39676601308064        0.00903187241517
O            0.50649062148022        2.57632921406591        0.05333803776673
N           -1.24861604255765        1.04710902141313       -0.04253895644902
C           -2.17599145041099        2.17238537840675       -0.04073679725986
C           -1.79822469238339       -0.20446613320029       -0.08316745296085
O           -2.99178904063030       -0.36975560075939       -0.21634875975131
N           -0.94636485037598       -1.35981898478657        0.05304773308136
C           -1.57349479702370       -2.71627563367380        0.08171334682948
H            3.75260131692784        1.19245558194011        1.08605739310181
H            4.01830030240810        1.20467196972325       -0.66795523086733
H            2.70361046795733        2.17630164215778        0.04160772420351
H            3.62851521365516       -1.57597177747628       -0.10463424686377
H           -1.58037955052048        3.08607452153833       -0.00090154763849
H           -2.79207621059060        2.17083556625296       -0.93875555449406
H           -2.82341629370319        2.11770372543355        0.83392043580407
H           -2.10018446759610       -3.48341188720991        1.11003922527981
H           -0.83016726166241       -3.40850950984081       -0.30100428811498
H           -2.46075584967293       -2.61905429294112       -0.52713882253268
H            1.45700019940285       -2.89941186287271       -0.23598886990805
25
 energy: 23.983831707987 xtb: 6.6.1 (8d0f1dd)
C            3.25258713267338        1.23853097478915        0.11101991651398
N            2.32485400055247        0.15815564447087       -0.05784862552626
C            2.64374199140920       -1.18036061366933       -0.15423221386776
N            1.47376781354763       -1.90079764558797       -0.14048311801326
C            0.41121725524424       -1.07207685779027       -0.03745019747343
C            0.92588623261978        0.23649645206829       -0.00852367268095
C            0.13470808027358        1.39479598421399        0.00973576547252
O            0.50603472068090        2.57541865904945        0.04991483366444
N           -1.25016373236476        1.04658800473673       -0.04246574829720
C           -2.17662196736351        2.17230124545671       -0.04013190742470
C           -1.79823952829693       -0.20519837899011       -0.08124918723835
O           -2.99335015938880       -0.37139526889763       -0.21073983913055
N           -0.94771197312862       -1.36000617152895        0.05686304274311
C           -1.57518688695681       -2.71810496374202        0.08202600821955
H            3.75196319099956        1.19470321170025        1.08623473558093
H            4.01924329725203        1.20368055103761       -0.66800189778133
H            2.70387066440089        2.17718996538384        0.03928472165162
H            3.62929468282254       -1.57960430826915       -0.09514599627808
H           -1.57978186419923        3.08504659318111       -0.00015467726781
H           -2.79261066148187        2.17130081147103       -0.93814992002615
H           -2.82389131084937        2.11740038769967        0.83457591157997
H           -2.09391098593916       -3.46714251892819        1.10036318225226
H           -0.82912016303927       -3.40581925204229       -0.29610204628895
H           -2.45910723776328       -2.62085688396953       -0.53502511639982
H            1.45474207623157       -2.90121701967133       -0.23728005783650
25
 energy: 21.679588614367 xtb: 6.6.1 (8d0f1dd)
C            3.25190150537453        1.23835517291741        0.11019787630082
N            2.32383515832691        0.15852505311229       -0.05745938603712
C            2.64537256808666       -1.18195359116731       -0.16362814812250
N            1.47273660186933       -1.90197292658845       -0.14045111588587
C            0.41162947957022       -1.07324125392997       -0.03547043001679
C            0.92532575791899        0.23481720375905       -0.00982001401438
C            0.13355410220700        1.39346533618395        0.01067212015323
O            0.50568334212148        2.57395456935774        0.04858596992837
N           -1.25125126400806        1.04637098797311       -0.04301581553241
C           -2.17689354418322        2.17222028027547       -0.03943509908100
C           -1.79781083041875       -0.20630699510871       -0.07996615032251
O           -2.99400782611793       -0.37326359509108       -0.20648164785013
N           -0.94888561624338       -1.36006596541424        0.06046549726629
C           -1.57810400317388       -2.72149795728554        0.08410626063946
H            3.75122478194075        1.19515705675837        1.08596282655944
H            4.01907486665113        1.20308539072410       -0.66831441525710
H            2.70401407382232        2.17762113102295        0.03820180162827
H            3.62940301817960       -1.58143094404995       -0.08360723973716
H           -1.57897231471988        3.08404501813593        0.00094307737820
H           -2.79275768859428        2.17253811554096       -0.93740425013368
H           -2.82405732653777        2.11707166463776        0.83527368410851
H           -2.08995559962948       -3.44523213204258        1.08838365162567
H           -0.82634225096824       -3.40822836776303       -0.28932236868189
H           -2.45652609751491       -2.62284971794375       -0.54152405918969
H            1.45402377397708       -2.90215493184252       -0.23985872957878
25
 energy: 18.495260268100 xtb: 6.6.1 (8d0f1dd)
C            3.25069842697778        1.23743802840708        0.10880822420065
N            2.32216296439966        0.15812506657735       -0.05815097102942
C            2.64610083768078       -1.18230886810156       -0.17893533031675
N            1.47217140643482       -1.90268519727580       -0.13991427860922
C            0.41161887774371       -1.07478089152509       -0.03152608081277
C            0.92491539907212        0.23234827745938       -0.01008794215273
C            0.13252039717256        1.39240508626321        0.01234176361204
O            0.50514477375691        2.57153030595228        0.04976420870013
N           -1.25163988819483        1.04574490534743       -0.04363817527050
C           -2.17673429222359        2.17141634591721       -0.03940443574308
C           -1.79683552183784       -0.20868421078910       -0.07709121700911
O           -2.99354286724677       -0.37594503630699       -0.20361249284340
N           -0.94924056657376       -1.36013772978886        0.06755790970335
C           -1.58185845034715       -2.72728552387411        0.09113321481940
H            3.75069669206626        1.19323607499588        1.08450021352624
H            4.01745955525258        1.20308327316450       -0.66972848167859
H            2.70392011983461        2.17746412044086        0.03856034426974
H            3.62830867592684       -1.58097785954215       -0.06817229312555
H           -1.57803633246396        3.08258586384793        0.00120574566361
H           -2.79243096674368        2.17326348695509       -0.93731463919079
H           -2.82397342049272        2.11671666326211        0.83525327111163
H           -2.08746296142223       -3.41562562910993        1.07086901489911
H           -0.82510695235549       -3.41076227436235       -0.28202680948997
H           -2.45191827346887       -2.62467709148322       -0.55007867635822
H            1.45527703498846       -2.90245858425920       -0.24327819072849
25
 energy: 18.909472732207 xtb: 6.6.1 (8d0f1dd)
C            3.25058813050574        1.23696353112897        0.10875848946616
N            2.32215919578819        0.15737465381034       -0.05985388572255
C            2.64464019696275       -1.18019242589305       -0.18120086185864
N            1.47324748717533       -1.90143403977692       -0.13992582723261
C            0.41117448011690       -1.07452831907947       -0.03096982778094
C            0.92542457951751        0.23250226892425       -0.00856252003112
C            0.13337185916515        1.39343212573865        0.01270900163550
O            0.50503023262188        2.57144639398563        0.05311772353192
N           -1.25046425648913        1.04553523715512       -0.04352247013957
C           -2.17616676666875        2.17083192838359       -0.04016829897314
C           -1.79628189785797       -0.20935195421537       -0.07689344828308
O           -2.99175128646938       -0.37590459064682       -0.20736441639084
N           -0.94767513524783       -1.36017526789035        0.06903957365084
C           -1.58140340850206       -2.72814049906254        0.09492753652001
H            3.75129864039164        1.19060924366726        1.08356115134514
H            4.01621649275124        1.20444502025878       -0.67049035051077
H            2.70368635316151        2.17682161013292        0.04082386134457
H            3.62704810061944       -1.57753681725784       -0.06969518166420
H           -1.57820658481703        3.08262426723111        0.00019695545014
H           -2.79182196610660        2.17240762271027       -0.93810666293813
H           -2.82360764223584        2.11682218199376        0.83442845355900
H           -2.09531804851140       -3.41862736225350        1.07195816279292
H           -0.82645905574146       -3.41268054236133       -0.28383800035581
H           -2.45023320100481       -2.62306198198711       -0.54836724385953
H            1.45771816881117       -2.90115368252439       -0.24352801740798
25
 energy: 18.615538608401 xtb: 6.6.1 (8d0f1dd)
C            3.25055590903665        1.23618151406400        0.10887798138341
N            2.32214438057133        0.15631713307173       -0.06145045919487
C            2.64269022882800       -1.17879010373939       -0.18454633285995
N            1.47320048607798       -1.90113054457513       -0.13945470959763
C            0.41022906372339       -1.07417714117361       -0.03000311656101
C            0.92564154912155        0.23285889687139       -0.00606045890739
C            0.13377688029539        1.39390444876193        0.01310704242969
O            0.50477217150637        2.57162264565154        0.05600012148806
N           -1.24962544412725        1.04499346177126       -0.04273245920242
C           -2.17593993145797        2.17019047010825       -0.04105376845491
C           -1.79671699869498       -0.20976553179787       -0.07656694681494
O           -2.99099747099757       -0.37549493979277       -0.21076313200359
N           -0.94660658881489       -1.35963415938869        0.07110859450369
C           -1.58025923173027       -2.72794181645462        0.09848319123236
H            3.75171888187276        1.18805976198663        1.08297399712865
H            4.01544053008460        1.20484107440236       -0.67099678875586
H            2.70334472064521        2.17576583894902        0.04258266461371
H            3.62528187971088       -1.57596971620742       -0.07064887306731
H           -1.57871929009837        3.08272560203150       -0.00109347705873
H           -2.79142163091961        2.17065665782126       -0.93923220267811
H           -2.82369758740006        2.11695959167721        0.83341772405537
H           -2.09425614932602       -3.41759396127218        1.07055453537693
H           -0.82821381888191       -3.41230519576927       -0.28666301214243
H           -2.44797455868168       -2.62246443799095       -0.54626829355838
H            1.45784668759270       -2.90078094683422       -0.24253792520707
25
 energy: 18.605768417257 xtb: 6.6.1 (8d0f1dd)
C            3.25068694762739        1.23619521101453        0.10919267799203
N            2.32244413140186        0.15620533317893       -0.06201083811967
C            2.64232121452236       -1.17868235141358       -0.18506021766918
N            1.47305064398170       -1.90124361657927       -0.13958348239245
C            0.41005598833962       -1.07405991227287       -0.02980836369262
C            0.92571243557429        0.23319667923312       -0.00503829298990
C            0.13393661170951        1.39382457203093        0.01319877191287
O            0.50459509024053        2.57192692781814        0.05612375713728
N           -1.24959803506254        1.04469688213364       -0.04210023447919
C           -2.17597901062973        2.17006054342410       -0.04132667821410
C           -1.79707357776549       -0.20970710487266       -0.07653503440752
O           -2.99103026539935       -0.37536622079285       -0.21210811457973
N           -0.94640179852864       -1.35967386662051        0.07194357389075
C           -1.57978838544625       -2.72736524592347        0.09912827194063
H            3.75165350323592        1.18785936967961        1.08327421044105
H            4.01572499405302        1.20502089610610       -0.67061133868189
H            2.70319133878959        2.17556233771299        0.04286280572109
H            3.62503211912506       -1.57626019631899       -0.07196042691904
H           -1.57882942558169        3.08270731601170       -0.00155563316259
H           -2.79130766830790        2.16996638564181       -0.93965508011804
H           -2.82387104341639        2.11713636425367        0.83306750730403
H           -2.09280155449335       -3.41836002803433        1.07127502673422
H           -0.82884655184671       -3.41175844826335       -0.28868085543199
H           -2.44777432779788       -2.62190937357375       -0.54480419780976
H            1.45711129361126       -2.90094385140167       -0.24219391825901
25
 energy: 18.384014591064 xtb: 6.6.1 (8d0f1dd)
C            3.25072620241932        1.23632563511286        0.10949403559480
N            2.32277712635334        0.15626710931880       -0.06284562475098
C            2.64229653537283       -1.17883530110518       -0.18655370547123
N            1.47284365780296       -1.90148929045971       -0.13990082803828
C            0.41007033913238       -1.07414406487300       -0.02936351062272
C            0.92578087793700        0.23334651956682       -0.00403935823581
C            0.13403442942787        1.39350272340590        0.01328601895515
O            0.50434250806384        2.57209887464594        0.05534195707529
N           -1.24980330819664        1.04434624261224       -0.04111893819669
C           -2.17608235363510        2.16997643852914       -0.04136052412189
C           -1.79733149275057       -0.20966915825869       -0.07640757518260
O           -2.99099880545857       -0.37571411047165       -0.21322171666354
N           -0.94631027545992       -1.35994919291783        0.07364517980316
C           -1.57973929431948       -2.72700598736224        0.09990110421032
H            3.75111637754293        1.18807259032686        1.08385014670808
H            4.01632102243203        1.20519629304355       -0.66984590869512
H            2.70297510511055        2.17550363373655        0.04269510426206
H            3.62487533173383       -1.57707717861492       -0.07208727846550
H           -1.57876039909099        3.08250530318594       -0.00181912717878
H           -2.79114715595430        2.16939609523436       -0.93988689711519
H           -2.82413800044356        2.11741261760445        0.83290959745792
H           -2.09078455589994       -3.41712755320705        1.07119472628032
H           -0.82951635029274       -3.41146933903709       -0.29016537191381
H           -2.44733695538549       -2.62121119413216       -0.54434248888970
H            1.45600410149463       -2.90122910371191       -0.24232512065798
