25
 energy: -42.158343715485 gnorm: 0.005366260739 xtb: 6.6.1 (8d0f1dd)
C            3.06192416732970        1.14319090475849       -0.26786102066387
N            2.13457745518578        0.05780302888038       -0.11569259764613
C            2.44507047901609       -1.20826524550522        0.05964328178409
N            1.33942750566126       -1.95349439753477        0.17490053108449
C            0.19586535277197       -1.13322298913750        0.07197608585486
C            0.74217242238524        0.18547280673795       -0.13897356020844
C            0.13020611895758        1.42610686796935       -0.28482644744539
O            0.55120589731451        2.54700427411750       -0.34121901370197
N           -1.43605307479682        1.30100283727560       -0.40114837569083
C           -2.17612926109538        1.86804518312910        0.71912561718449
C           -1.88359757235065        0.93427433683328       -1.49711507758225
O           -2.15506015949140        0.54723140905021       -2.54096884293546
N           -1.02660344913507       -1.45968517079654        0.17494520116505
C           -1.48288998772099       -2.78920598113808        0.43791261906212
H            2.95204050339233        1.84931578363316        0.55631313978665
H            4.07806539863239        0.75606510991849       -0.28194210723145
H            2.86255300129026        1.68228856078887       -1.19376392205035
H            3.44764353128164       -1.59169498957192        0.10231407627557
H           -1.74048349747472        2.83822970205040        0.96106086819234
H           -3.22642850568259        1.99010964289130        0.45927879527377
H           -2.08315392947360        1.19338171715876        1.57226000055897
H           -0.84999596343310       -3.35846295296589        1.13245403538483
H           -1.56251883029394       -3.34775177940290       -0.49920311424594
H           -2.48316979810274       -2.70707410297833        0.86164847648749
H            1.32576370993111       -2.95242601456152        0.31005296920951
