25
 energy: 129.366760839256 xtb: 6.6.1 (8d0f1dd)
C            2.04563655556795        1.88317458353211        0.07854788025092
N            2.08721168993528        0.48672848401287        0.05970919454869
C            5.18355552421591       -0.73081581796576       -0.20290882627874
N            1.06448713822115       -2.28085754247905       -0.01936419183599
C            0.30133196521407       -1.27903618262245       -0.00894305021181
C            0.83854988653446        0.06504238428723        0.03929641614629
C           -0.05221667178689        1.14670418932756        0.06212026094543
O            0.62528318381219        2.30041374243349        0.09116064039697
N           -1.38974250785857        1.04331623751379        0.05425834050907
C           -2.28012011514030        2.19081386640584        0.09452713020133
C           -1.97277599108719       -0.22822432052385       -0.01449545511716
O           -3.18032838306033       -0.32986048396343       -0.04299264439194
N           -1.11819206742639       -1.30714876717173       -0.04284573125825
C           -1.74057448051880       -2.62311895161954       -0.11093867611925
H            2.44311866116691        2.32626960155138        0.97925693874253
H            6.26247393193920       -0.68378422020106       -0.30022352607273
H            2.56491124863208        2.35496548085915       -0.79113660759893
H            4.85890258734759       -1.77343828389430       -0.13908158344958
H           -1.69175590949605        3.10485891480541        0.16158079726513
H           -2.90183005648549        2.20595986843358       -0.80330211014512
H           -2.94391210563227        2.11107507701716        0.95937752056543
H           -1.46112868205344       -3.21858614834500        0.76222136705353
H           -1.42303268569084       -3.14339970000319       -1.02176945986600
H           -2.81981161818898       -2.48867816170530       -0.12760674225576
H            0.65003391497399       -3.20510145769932       -0.04961066064980
