25
 energy: 141.824491290708 xtb: 6.6.1 (8d0f1dd)
C            2.16417749810382        1.79944994691839       -0.05651837922239
N            2.13915927982306        0.42812772370244        0.02879114408076
C            4.98829256476982       -0.70370453076624       -0.19470267161841
N            1.15562203376833       -2.22085823456183       -0.01671570080312
C            0.32948088681168       -1.26203300865637        0.00141406805658
C            0.88015702402466        0.06181313115062        0.05020125946237
C           -0.01788717298344        1.16013930037060        0.04908381301010
O            0.68578236147151        2.31042848485297        0.03305725089019
N           -1.35687353134238        1.02597989914768        0.05666720669073
C           -2.27759589263125        2.16769026655642        0.10290907969467
C           -1.93826283212345       -0.24826084751913       -0.01273199233896
O           -3.14744102542852       -0.35279739099699       -0.04754932194650
N           -1.07898179800420       -1.32183866443885       -0.03996610204891
C           -1.70920243466697       -2.63194134759624       -0.11091396596928
H            2.40873450005278        2.34654385850864        0.78599272091867
H            6.15886750311159       -0.74941747580397       -0.03372047607395
H            2.73016943951570        2.22379964197818       -0.93258326635116
H            4.81140321047623       -1.77095475759973       -0.08140917670526
H           -1.67660733178084        3.06564832686328        0.17560268741406
H           -2.89212507252787        2.18321794062262       -0.79442627993216
H           -2.93220616481279        2.07359474810445        0.97088293536945
H           -1.49619430780939       -3.24045158044728        0.76953435049380
H           -1.42658128050141       -3.17296199241192       -1.01546421436482
H           -2.77724368679040       -2.45477835363807       -0.13871832136536
H            0.77446958037152       -3.14927283021838       -0.07039623208249
