25
 energy: 144.265273817958 xtb: 6.6.1 (8d0f1dd)
C            2.73024145936867        1.58456281993022       -0.07652115814020
N            2.48514648690818        0.21222258738938       -0.00218768172371
C            3.72894424417713       -0.55881940420240       -0.02943599143029
N            1.38199413841738       -2.09662758839976       -0.04318783752170
C            0.45800220268661       -1.21283714281482        0.01133356196157
C            1.00467139636377        0.10081657221604        0.08003749520559
C            0.10441530720383        1.25897222921019        0.07895858411897
O            0.47769039295484        2.42569716628810        0.11627794479869
N           -1.27241134453265        0.99254648334802        0.05600422529859
C           -2.20635488730233        2.11379421731435        0.09379655482155
C           -1.83668663053687       -0.25546976490311       -0.01130941142537
O           -3.03821115426934       -0.40069151858291       -0.05859994156448
N           -0.95650676816231       -1.33327971132924       -0.03080517496078
C           -1.65257906290379       -2.61763613890583       -0.10277074222471
H            2.76314367321356        2.13713388086572        0.84756524409508
H            5.10545467016398       -0.09399573626064        0.54922310454836
H            3.07944142955017        1.96951135414716       -1.00379393926235
H            4.22362351798017       -1.48798580486053       -0.13279197467217
H           -1.60969321825668        3.01667494889589        0.17083335566895
H           -2.80807873063702        2.16038333370808       -0.81740600500913
H           -2.88024078023106        1.99652778282279        0.94194822868540
H           -1.44224477080905       -3.24224592641584        0.76557601628327
H           -1.41584744049292       -3.15217497945079       -1.02340037230539
H           -2.71965029564776       -2.36820660275427       -0.10404057011681
H            1.10947276444797       -3.05586719572337       -0.09594096800475
