72
 energy: 59.852964157399 xtb: 6.6.1 (8d0f1dd)
N           -1.68654697882893        3.00860721635462        2.33057136691024
C           -1.66395195686368        2.15586411241113        1.39353572696718
C           -2.76160594511288        1.99286496604417        0.36567650487362
C           -3.29941257494412        0.57196058605107        0.41897264077106
C           -4.23844099666532        0.12118924779222       -0.51083740506416
C           -4.77618096518911       -1.15253659869137       -0.44184672522017
O           -5.71106406016390       -1.66201056175424       -1.30541837298237
C           -6.22389887368975       -0.80258116020979       -2.29606395003842
C           -4.36958550896573       -2.03555136091873        0.57978242324473
O           -4.95576153781429       -3.27235585001160        0.56566514463288
C           -4.62103757348179       -4.15284297753077        1.59960089555633
C           -3.43617899321106       -1.58937332730392        1.49029215634982
C           -2.92560109819389       -0.30127176294410        1.41372967311121
C           -2.18353182171370        2.27403451128325       -1.05512519337841
C           -1.22027909345407        1.23401517872150       -1.70131113361960
C            0.16756635901676        1.28685644500878       -1.12525540968583
N            0.83982826297831        0.08409394469114       -0.64081428379413
C            2.24478684454443        0.17441142817926       -0.39293107719317
C            3.10565501280292       -0.01151671603927       -1.68074735334708
C            4.52755121503947       -0.04370646666329       -1.31017843340501
C            5.42236137326438        0.98630486750323       -1.19793124826624
C            6.68614131227726        0.79359442450843       -0.65038085244473
C            7.02956109710912       -0.43397731718553       -0.03092977840881
O            8.31569847148076       -0.61280536690366        0.49500668864055
C            9.26501484227378        0.45841109626160        0.38134564599201
C            5.92729472604964       -1.35823482030722        0.06389194282958
O            5.35418241258607       -2.01671369143491        1.15451295864005
C            4.95137509745906       -3.31010520985638        1.39279103315388
C            4.87364928338197       -1.22670871368064       -0.77716460055602
C            0.29677328881567       -1.26938907997895       -0.83220166505573
C           -3.94871377782015        2.97161702737340        0.61073794376360
C           -4.57023531398218        2.68319196260995        1.98091449205288
C           -3.49755694625588        4.43927179758788        0.53444428273234
H           -4.54209516452926        0.78734907681474       -1.30392404503140
H           -6.68757216615948        0.09066783134460       -1.86217513588762
H           -6.97416162105129       -1.38482632641893       -2.83020475122032
H           -5.45307316865468       -0.47972809753300       -3.00467650899529
H           -4.86524058517708       -3.72657454962027        2.57727514229597
H           -5.21926497325762       -5.04207628975672        1.41024119316745
H           -3.55740716392467       -4.41778289892753        1.58594179255249
H           -3.07983011356012       -2.24320343740931        2.26876532535683
H           -2.20690744360387        0.02085046551913        2.14378914833928
H           -3.05246375995162        2.42473637666538       -1.70701090810248
H           -1.63133289833333        3.21668890530214       -1.03007764407235
H           -1.58967416447072        0.21551092378449       -1.60699197286053
H           -1.27911777325462        1.47149263197942       -2.79546243162035
H           -0.82800926632768        1.46128340432165        1.21829618034554
H            0.85417553617615        2.04504401493529       -1.51746228610211
H            2.54400233150430       -0.57189212822402        0.38377019817264
H            2.41634518246530        1.18174139908549        0.01243535432741
H            2.91437155305342        0.80488548157765       -2.36964924284518
H            2.84578628086961       -0.97767727301763       -2.12518793935237
H            5.10134759241132        1.93539709076214       -1.58274610654536
H            7.35938277369553        1.65190838567062       -0.65149130141354
H            8.95619798778335        1.36512890264839        0.92893697780871
H            9.46201991526359        0.74414173700850       -0.66098270754980
H           10.21037696815607        0.09611400101782        0.80296462087400
H            5.56303787380375       -3.90644071673238        2.07713343997217
H            4.02560594354774       -2.97447435364917        1.90702467187000
H            4.81578443295537       -3.92248006766189        0.49631408040543
H            4.15032873697883       -2.01617877363641       -0.70677286813420
H            0.17446983080988       -1.58709212838284       -1.88249551310397
H           -0.68987166254462       -1.35037147664584       -0.35634486994859
H            0.97091786409606       -2.01311225043361       -0.37817955102321
H           -4.70843703554357        2.79673285547662       -0.16614134408426
H           -3.79788385804940        2.84787299091567        2.72647646286177
H           -4.91078654908656        1.65024053356529        2.05795681249080
H           -5.41083266575340        3.34919194602022        2.17319049177135
H           -2.67865247360430        4.60031364916192        1.24030148786509
H           -3.14722188804144        4.70933114907248       -0.46140590951352
H           -4.33472718433893        5.08563327598456        0.79217653051349
H           -0.79851816783601        2.91147717075992        2.82362767552494
