72
 energy: 49.397557563587 xtb: 6.6.1 (8d0f1dd)
N           -1.68063760921836        3.00236154286537        2.31291397151243
C           -1.66107326052566        2.15867985102067        1.37297974267244
C           -2.76583171897557        2.00311514290130        0.35549184858814
C           -3.30654107629853        0.58248981523061        0.41264087439478
C           -4.24929684781076        0.13456704799615       -0.51452926599019
C           -4.78723976536246       -1.13894917414358       -0.44839364503571
O           -5.72408598370417       -1.64510435299067       -1.31130818144699
C           -6.23944961726125       -0.78177036397595       -2.29673770411635
C           -4.37659112656201       -2.02529335756641        0.56844734805865
O           -4.96199422513212       -3.26209343306359        0.55098189638221
C           -4.62294606295980       -4.14723257790421        1.58018186824455
C           -3.43748941483012       -1.58336655788144        1.47573783185752
C           -2.92502493535785       -0.29532284550191        1.40092867281976
C           -2.18084267009304        2.28060862717276       -1.06503959326856
C           -1.22060079493622        1.23187433416152       -1.70544389062896
C            0.16466674696525        1.25607871446573       -1.12068576048100
N            0.82644667135926        0.05494390439910       -0.64317463544703
C            2.22560266447908        0.14165154815748       -0.37649210188349
C            3.09214120533347       -0.07307603362975       -1.65281952125205
C            4.51194983488597       -0.08827443892955       -1.27185433911129
C            5.39066354122720        0.95863211619560       -1.18666413489793
C            6.66227999574046        0.79878160197843       -0.64501862351749
C            7.04432332275011       -0.41481247024720       -0.02410857138124
O            8.32857121409654       -0.57466169900460        0.50106538969954
C            9.25621091334957        0.50835167112907        0.37756431207762
C            5.97187750530841       -1.37224702325220        0.06974862255407
O            5.55133837582351       -2.09245252157858        1.16446755424911
C            5.07947596139774       -3.36062744391479        1.37415026381401
C            4.87537222986461       -1.25689207190308       -0.71689670523650
C            0.26161824953166       -1.28145438672517       -0.81270181300554
C           -3.94778065450775        2.98481999485023        0.60614640830371
C           -4.57426204378211        2.69476618091025        1.97460009046999
C           -3.48980261706065        4.44995565795108        0.53576551642441
H           -4.55477496871518        0.80308046291399       -1.30462220036177
H           -6.70172977950658        0.10930791912926       -1.85700909852889
H           -6.99079663798841       -1.36159311676481       -2.83155795677848
H           -5.47097209874661       -0.45633056861442       -3.00653084024878
H           -4.86368295401012       -3.72517006848730        2.56063541593913
H           -5.22301863231743       -5.03542372251110        1.38997301583331
H           -3.55904928470817       -4.41179984101234        1.56218579758361
H           -3.07923616980285       -2.24017662810762        2.25139853490295
H           -2.20220146484006        0.02303589905781        2.12955272776366
H           -3.04576844737779        2.43263490504956       -1.72222897709712
H           -1.62894056764057        3.22205840210386       -1.04487657797889
H           -1.61205699076273        0.21903644711537       -1.61416784397232
H           -1.25208285729911        1.46650109597482       -2.79461335258872
H           -0.81551583105825        1.47774838892397        1.16484811350222
H            0.86879581686792        1.99596992365546       -1.50493561821633
H            2.50672797148525       -0.59571219856418        0.41399309677838
H            2.40946981662665        1.15383723612634        0.01424251070271
H            2.89939833238963        0.72724712696167       -2.36150064687985
H            2.83693903708636       -1.04938504203541       -2.07774850089732
H            5.05575392944455        1.89654196766890       -1.58813019783633
H            7.31748379278016        1.67009587596291       -0.66177983304115
H            8.93180958212299        1.41223360151332        0.91912298772163
H            9.44412750048348        0.78801929731080       -0.66783346582194
H           10.20577957248208        0.16022757116901        0.80075807911463
H            5.69881464380273       -3.97099992417182        2.04283003310290
H            4.16316419520629       -3.02389552015556        1.90095494502798
H            4.93231170663078       -3.94922806625746        0.46757289322254
H            4.16880765437272       -2.06020459291410       -0.63456424082100
H            0.13518778673377       -1.60213543549698       -1.86061813393380
H           -0.72529670073743       -1.34158772907297       -0.33484394871923
H            0.92794993159384       -2.02486254856112       -0.35158935390006
H           -4.70740510537694        2.81549072708140       -0.17165584969269
H           -3.80404888592933        2.85407791399033        2.72268915658508
H           -4.92026716956699        1.66306533127643        2.04999882350964
H           -5.41061259557985        3.36497439208090        2.16886588691714
H           -2.67204547361045        4.60822956287344        1.24337189673704
H           -3.13626529832296        4.71946928417764       -0.45878782025300
H           -4.32607257040935        5.09916928898943        0.79103390516036
H           -0.80927627438104        2.92198261971588        2.82956773464955
