72
 energy: -6.162246120263 xtb: 6.6.1 (8d0f1dd)
N           -1.50744930144493        2.79995477968458        2.24374255761613
C           -1.56020885122056        2.15117166094639        1.16832125658757
C           -2.74961979164609        2.05807607894938        0.25407955315116
C           -3.31926558490514        0.64749901059989        0.33452391175803
C           -4.30373090911993        0.23921587380576       -0.56723193718301
C           -4.84526488016912       -1.03177109550351       -0.52119966258446
O           -5.81200946914190       -1.50617727066402       -1.35956848002675
C           -6.37987027856581       -0.62745291759692       -2.29570093335092
C           -4.39847163259369       -1.94812326601253        0.45638249673469
O           -4.98871179020745       -3.17755930181055        0.42248109925848
C           -4.65822594439903       -4.10484037130005        1.42483412439203
C           -3.42560569724690       -1.54314425397751        1.34894934658904
C           -2.89325728059593       -0.25984059436044        1.28647869141726
C           -2.19626423098060        2.29772932892184       -1.17701523928899
C           -1.25920978457630        1.18247824563889       -1.67440604866153
C            0.01635661774977        1.13758451259878       -0.90933308871795
N            0.64982029196640       -0.04294047490456       -0.56068054023715
C            2.02532390185024       -0.02875999001366       -0.17585770524818
C            2.95437453123525       -0.50004406104391       -1.31901531668689
C            4.37723193332093       -0.40527263260306       -0.89020934294044
C            5.11043339109785        0.75247448095071       -1.06056582119158
C            6.41943990970709        0.84014672164576       -0.60678314821107
C            7.01535301287497       -0.22886745865012        0.04304310538585
O            8.29248172710795       -0.24802161139960        0.52620854555274
C            9.09797674177818        0.88609176315706        0.32741077302433
C            6.24625653309014       -1.39745774413649        0.24917235237558
O            6.82984867873711       -2.38781789480505        0.97771752847542
C            6.17409239801616       -3.59822234178350        1.18459491350550
C            4.95859458054386       -1.47404708906752       -0.22508449283750
C           -0.01927605304740       -1.30837689703012       -0.63373095839735
C           -3.87958663782466        3.07209809180671        0.58418301911314
C           -4.50457311930043        2.77104089683226        1.94585520132221
C           -3.40326881101611        4.52339470233668        0.54988040243692
H           -4.64753622383019        0.93253130527709       -1.31654729251464
H           -6.83233713066622        0.24345776015557       -1.80888158065127
H           -7.15391790175191       -1.20321865224363       -2.80136248639422
H           -5.64563586358243       -0.28747269468120       -3.03441212886705
H           -4.87876950211006       -3.71553880693213        2.42440924452686
H           -5.28317350268536       -4.97534462625228        1.22915161111412
H           -3.60329604208512       -4.39757949625594        1.37692071054288
H           -3.06935306662272       -2.21819407654699        2.11160380430176
H           -2.14678320998075        0.02599405874664        2.01089318349623
H           -3.03282228286604        2.38857100133799       -1.87144928430676
H           -1.65026651040347        3.24222737377551       -1.19150275231774
H           -1.78813265046095        0.23279701599131       -1.62820369108676
H           -1.02570996499526        1.38434911315028       -2.73083062661570
H           -0.69544108797011        1.63368378172887        0.69356569535671
H            0.66630540877922        1.99330901277646       -1.00034480738202
H            2.16471588705776       -0.66658869127111        0.70769130404635
H            2.30803950699143        0.99006139394560        0.09820034701994
H            2.77618379753427        0.14016363365470       -2.18438532177681
H            2.70294195437974       -1.52796316338996       -1.57931458991623
H            4.66654802259573        1.59885668348804       -1.56235719212933
H            6.96666433434858        1.75515889327943       -0.77260591324172
H            8.68477855071148        1.76901495394768        0.82767410388614
H            9.23391236163478        1.10523533435323       -0.73729342280815
H           10.06536997379991        0.64054157196912        0.76644887165927
H            6.89788865300908       -4.22378930256000        1.70511101123964
H            5.28916702383856       -3.45675135363725        1.81492703755602
H            5.89907906640078       -4.08341191451274        0.24259451128197
H            4.37980446318465       -2.36866650951297       -0.07495688918054
H           -0.18344014800956       -1.62856503300321       -1.67140327538645
H           -0.98700077844429       -1.25376670233066       -0.12830077834236
H            0.59388586267446       -2.05788927139764       -0.13434168724266
H           -4.65544537182317        2.95401171886199       -0.18262746927520
H           -3.75721563957115        2.89998816788784        2.72291361575717
H           -4.87857005896013        1.74927847604337        1.98587654340058
H           -5.33072283640917        3.45376369982421        2.13349527860934
H           -2.60468848744058        4.67815272697508        1.27079233774685
H           -3.04659062794626        4.80565562702007       -0.43775659687002
H           -4.23347847283526        5.17889169590762        0.80771706813179
H           -0.61706704383768        2.78221225748267        2.73735457117756
