72
 energy: 91.692596582127 xtb: 6.6.1 (8d0f1dd)
N           -1.47551332569116        2.90448906072982        2.19751140618860
C           -1.53717145313921        2.05244528529085        1.28054291951377
C           -2.69767258127210        1.88289008888106        0.34406524466296
C           -3.21649330228247        0.45511629829581        0.44328675026561
C           -4.13975642357684       -0.02274084901008       -0.49021277437629
C           -4.67249006952086       -1.29540520460307       -0.38592201528989
O           -5.58362727176473       -1.83292230036859       -1.24588012687028
C           -6.09753856619247       -1.02667186856625       -2.28136598839701
C           -4.28473516017742       -2.13817269558572        0.68265534546866
O           -4.87481721594566       -3.36171537321492        0.70571881687604
C           -4.60989419287165       -4.21476339744781        1.78568659094981
C           -3.37435957936613       -1.65694852918103        1.60122313113615
C           -2.85570040770675       -0.37355017639142        1.48573111943098
C           -2.15977381079030        2.16927703335206       -1.08025946778752
C           -1.18698569244148        1.10853258643023       -1.61692657893819
C            0.18431425987699        1.23732845018642       -1.05435370089131
N            1.02091246109088        0.23349309510376       -0.82228489662024
C            2.40111166512320        0.49807556576819       -0.50358075619791
C            3.29217211511100        0.54925635891836       -1.77593056150744
C            4.71119863273695        0.23237146033665       -1.33662315202853
C            5.68675967775587        1.19661474364973       -1.16259590561389
C            6.93195117074797        0.86632645382474       -0.63793282261178
C            7.25231592127598       -0.42198993156494       -0.22643786443534
O            8.42900650209418       -0.82367636167560        0.30723691656453
C            9.45684724366554        0.10145615743497        0.37842966411595
C            6.22744561009869       -1.32540945668776       -0.31234793227278
O            3.45588969246938       -2.04153336717517        0.54779307273596
C            3.66763532578779       -2.99608364231924        1.48824986334830
C            5.05887756950366       -1.08521239220425       -0.93629937332185
C            0.62044948811890       -1.14761821568261       -1.00891505628253
C           -3.88440561695136        2.84670318091150        0.65118501227474
C           -4.48179930115605        2.57340911815942        2.03146731647095
C           -3.51475042656556        4.32682676407329        0.53966792125684
H           -4.44856496658525        0.61978766003461       -1.30020108102117
H           -6.58275813315959       -0.12148849808681       -1.89926316496025
H           -6.84120870483012       -1.64019452980883       -2.78844073317624
H           -5.32172794440528       -0.73890880236300       -3.00004561115660
H           -4.89194541406908       -3.75384206315391        2.73620529279376
H           -5.22447946637241       -5.09562781659687        1.60942376426018
H           -3.55546409825648       -4.50609054870656        1.81666724688610
H           -3.06345195588413       -2.27209995610391        2.42773143405902
H           -2.17483923561275       -0.02411537380941        2.24294079676770
H           -3.01304752841025        2.25831960143050       -1.75646184618729
H           -1.65414686330442        3.13553628750785       -1.07390260482466
H           -1.60090224535904        0.11572085111202       -1.44652091318571
H           -1.12671549587356        1.25345513769099       -2.70624567173778
H           -0.72542764648222        1.35936555880239        1.06077304600655
H            0.56883429051440        2.23960536879865       -0.91701926855148
H            2.78511361080430       -0.29866286515373        0.14490847435795
H            2.47914745721392        1.44351742787444        0.03806942231205
H            3.18405768017925        1.52379905716323       -2.26415317739806
H            2.93220848833245       -0.22371482528323       -2.46228112306036
H            5.49593129387526        2.23265854889877       -1.40884545336947
H            7.69342225583310        1.61397478836217       -0.54934349425695
H            9.20048936881707        0.93417052735765        1.04364668296508
H            9.72383877165955        0.50527811005279       -0.60987251465431
H           10.28311087390304       -0.47968857510801        0.77923632677439
H            4.54829016933731       -2.94714674329511        2.15262370734938
H            2.78743319991806       -2.91362185119377        2.18089102654953
H            3.69621044141900       -3.94494656021967        0.93259779492161
H            4.33897573132326       -1.87549609476271       -1.12487340523374
H            0.50979174725923       -1.37838358790857       -2.07077825502951
H           -0.34268966336616       -1.36465261692126       -0.53339491412394
H            1.37896194037768       -1.80275630752676       -0.57699000159179
H           -4.65998671956361        2.63848001837509       -0.09711135111431
H           -3.74842224061064        2.79033045108924        2.80128470928078
H           -4.79622665199454        1.53658579486218        2.12424331815382
H           -5.35055484453987        3.21034352236982        2.18618835462086
H           -2.70069355540356        4.55743371079246        1.21987484058591
H           -3.22681513888765        4.60132717943491       -0.47265589220202
H           -4.37557858981308        4.93431448816909        0.81175922990386
H           -0.61105650259637        2.90665315968170        2.73500915444338
