72
 energy: 2.784878724501 xtb: 6.6.1 (8d0f1dd)
N           -1.57199630857784        2.88941909162045        2.26222467315382
C           -1.59775572575411        2.15439655546632        1.24057052277129
C           -2.75950519720488        2.03947321856342        0.29040862125087
C           -3.32201008024773        0.62604735159369        0.36657753820651
C           -4.29054023165485        0.20008254840843       -0.54356141961540
C           -4.82987456313413       -1.07201528825658       -0.49030244526395
O           -5.78237472093501       -1.55969511615076       -1.34201139141132
C           -6.32515014620250       -0.68329402469854       -2.29728199160494
C           -4.39578345842377       -1.97601162192217        0.50206105096992
O           -4.98111509193051       -3.20986141830171        0.47155540129764
C           -4.64152439245929       -4.12050380763085        1.48263679785443
C           -3.43253897941744       -1.55630187978067        1.39748410393983
C           -2.90815288227147       -0.27078108183029        1.32945680915579
C           -2.19108503177399        2.29094420979860       -1.13717109316334
C           -1.24322131244891        1.20042911870893       -1.69093275528357
C            0.07701948081553        1.17270321590946       -0.99269285416680
N            0.71695974269346       -0.01487637605080       -0.59364818925300
C            2.10365569344262        0.02448270639458       -0.25609229607586
C            3.00711634693989       -0.34902282679472       -1.45811093538689
C            4.42554589941769       -0.29038598275202       -1.04205680652657
C            5.21596107576922        0.83096326467049       -1.11352955971843
C            6.51758505852822        0.83121743343675       -0.62049097235246
C            7.04946727562110       -0.29383913074027        0.01043338726619
O            8.32908611102334       -0.36957882258212        0.51508731664249
C            9.17271026198765        0.75100636155819        0.34840535618196
C            6.13913594348111       -1.37489246681821        0.19015032433472
O            6.42412843037955       -2.35821211753893        1.08149470589374
C            5.75136786591405       -3.53708426216599        1.27112800988874
C            4.92310535383841       -1.39452054433035       -0.40605630292744
C            0.08564455692330       -1.30537130992345       -0.70262353306809
C           -3.91023204377934        3.04179701095515        0.58842170916447
C           -4.53938711196611        2.74508283796963        1.95108717987075
C           -3.43645997066639        4.49693889950173        0.54547236107735
H           -4.61547361759692        0.88280859606681       -1.31192802665403
H           -6.78122854511288        0.19516997414465       -1.82733726432113
H           -7.08854389776865       -1.25667991233265       -2.82083041835100
H           -5.57533971930164       -0.34759538864157       -3.02195313383877
H           -4.86901377238261       -3.71861271093455        2.47524760406425
H           -5.25656170302141       -4.99886069291488        1.28922652537612
H           -3.58129647287041       -4.39760923599812        1.44475768909474
H           -3.07211940008737       -2.22527287709595        2.16386706418106
H           -2.16679241715379        0.02805407066143        2.05192788994376
H           -3.03870935012889        2.40747448774113       -1.81825359502527
H           -1.64107498941590        3.23325382594689       -1.13838972199769
H           -1.72202347465041        0.22450674078106       -1.62223611903812
H           -1.10820167259928        1.41440379481205       -2.76486086681095
H           -0.73417742475311        1.57712973742543        0.86658179171478
H            0.75713572333878        1.98826598340563       -1.18369385742518
H            2.29906972818134       -0.65411674568129        0.59755811769963
H            2.35485114556879        1.04427649418775        0.06143580153992
H            2.81512234329913        0.35583472020632       -2.26724059454784
H            2.75993128837736       -1.36289704830213       -1.78040261201751
H            4.81156368232991        1.71406952054231       -1.57915943070920
H            7.10033043680073        1.73767741378093       -0.72668005652192
H            8.78316087846727        1.63866314199545        0.86479678528599
H            9.32260295612972        0.99557956131743       -0.70995386870494
H           10.13834705167121        0.47081803850441        0.78026968268991
H            6.42393349037287       -4.18215876575869        1.84908446475047
H            4.85856252728455       -3.28519214930020        1.85635714998645
H            5.52791434513970       -4.04674772682266        0.33234354844019
H            4.30603855620912       -2.26260590878492       -0.28650429721016
H           -0.06305665920793       -1.63158637614735       -1.74235909567988
H           -0.89316135756359       -1.29419284422349       -0.20996481353494
H            0.72102773251401       -2.05284566253841       -0.21842242374214
H           -4.67951347015712        2.90642858304558       -0.18415893912462
H           -3.77553962188704        2.88296939815337        2.70726745644749
H           -4.91185915294095        1.72221669506523        2.00763378501621
H           -5.36423922774970        3.42662923426264        2.14925653692976
H           -2.62868034568208        4.64978133915385        1.26123184977011
H           -3.07738244627719        4.77273616383460       -0.44390989176437
H           -4.26911458625770        5.15129730840489        0.80115032828586
H           -0.69197504183922        2.84548869138096        2.76595888359426
