72
 energy: 72.656384034661 xtb: 6.6.1 (8d0f1dd)
N           -1.64220531849362        2.99964825571016        2.31706526114903
C           -1.64878914873080        2.13681260896929        1.38588864106672
C           -2.75010836948414        1.97180673228761        0.36353199500428
C           -3.28288132864572        0.54985682089465        0.42614465587081
C           -4.21639590709645        0.09343167013372       -0.50594830300870
C           -4.75278606834094       -1.18042969778060       -0.43001180425586
O           -5.68425131347483       -1.69586091500110       -1.29357548851253
C           -6.19454076069266       -0.84579327200449       -2.29417505086933
C           -4.35271571366806       -2.05656542483630        0.60064974836656
O           -4.93979522491308       -3.29302453144323        0.59333610440389
C           -4.61868229651512       -4.16451219592062        1.63798833493463
C           -3.43008586744418       -1.60118388199851        1.51735632439183
C           -2.92257615226125       -0.31277238382477        1.43589299235046
C           -2.19443693413227        2.25554135359764       -1.06188839611005
C           -1.21984870334504        1.22265599016617       -1.68474028095816
C            0.14802877156516        1.31556259834186       -1.08084841812274
N            0.85849917904411        0.12385291044384       -0.64657259147961
C            2.27425355468899        0.24095382639009       -0.41383772328211
C            3.13036597069148        0.11387639998086       -1.71839462839283
C            4.55880887516441        0.04719972772616       -1.36841479379670
C            5.48222838836116        1.04346897145007       -1.20866609818546
C            6.73328871533402        0.78480265155865       -0.65587318900364
C            7.01869919832686       -0.45657348887853       -0.04080043955452
O            8.28970491996940       -0.67963652190958        0.47333346689990
C            9.28126019595245        0.36266999951918        0.38504232761921
C            5.88280880557106       -1.35837291583442        0.01323734966320
O            5.03996187875952       -1.87684799084741        1.09361450889078
C            4.69639050877492       -3.18707219665032        1.41153297031648
C            4.88495305788144       -1.16531623335249       -0.88762406774970
C            0.36392640817108       -1.25219245350929       -0.87004438455362
C           -3.94268698515519        2.94523777487339        0.61833316422679
C           -4.55494417430249        2.66107059888180        1.99221806499240
C           -3.50912650215969        4.41721889913777        0.53264524044508
H           -4.51782476217877        0.75543492873850       -1.30375943925018
H           -6.66136891367939        0.05120155227305       -1.87150020795395
H           -6.94343224359160       -1.43384342476439       -2.82480814597581
H           -5.42041234337063       -0.52884578152189       -3.00226125901539
H           -4.87088596441517       -3.72948512840774        2.60969883487635
H           -5.21552623180736       -5.05450251145661        1.45087119730593
H           -3.55634837452203       -4.43295666667252        1.63378022523757
H           -3.07838452626313       -2.24849212340969        2.30259930619099
H           -2.21417167937260        0.01621729041152        2.17134849285277
H           -3.06658372543492        2.38992301005028       -1.71213118082973
H           -1.65436640364712        3.20587981632259       -1.02946105621052
H           -1.56109406078308        0.19972987199735       -1.57896019506561
H           -1.27667146201969        1.43514778519918       -2.78915246444946
H           -0.84674474957528        1.40875961991117        1.30851828588616
H            0.80468473111844        2.12157480904389       -1.41147651866157
H            2.61496329942192       -0.51475646647160        0.33640259175382
H            2.42250764037400        1.23870935146405        0.01793633596876
H            2.94301678373599        0.96179131257813       -2.36698836771479
H            2.85613683686429       -0.82755237466281       -2.20435957231488
H            5.18820269172299        2.01365896410175       -1.55908674059835
H            7.43991519342475        1.61406895130376       -0.62848750005216
H            9.00345502112908        1.27270958249788        0.94625882686317
H            9.49927595253329        0.65948731822043       -0.64961019674789
H           10.21341824394929       -0.03208194344849        0.80494778738042
H            5.29562356617941       -3.74182751127691        2.13671787049973
H            3.75003074181145       -2.85278061242550        1.89588417252561
H            4.58266285073766       -3.86589853239649        0.55088219198671
H            4.13588743324643       -1.93089840155334       -0.85471704320343
H            0.24809873252167       -1.55454218530599       -1.92643098261126
H           -0.62003517978888       -1.37306106634428       -0.39592782652362
H            1.05754303189565       -1.99057848166465       -0.43287572752957
H           -4.70674700043158        2.76118065470369       -0.15243807061180
H           -3.78722794120234        2.83753218971832        2.74022965603654
H           -4.88758311044358        1.62662653520588        2.07229079342443
H           -5.40316946153189        3.31908813566879        2.18119033547656
H           -2.68869480719122        4.58457331596222        1.23416351631463
H           -3.16834816380014        4.68961294913339       -0.46630527508140
H           -4.34738932545052        5.05719609036431        0.79832389595517
H           -0.76255731104107        2.90778273616810        2.83864132243697
