72
 energy: -4.822184726867 xtb: 6.6.1 (8d0f1dd)
N           -1.52714863917548        2.82953393518493        2.25171670033601
C           -1.57208019794263        2.15282933838431        1.19251424242555
C           -2.75248558792725        2.05332220189609        0.26571721355620
C           -3.32046675054322        0.64196057333312        0.34480315035071
C           -4.30041379955821        0.22781460464789       -0.55893586885981
C           -4.84048689074569       -1.04419245944682       -0.51100233933156
O           -5.80266985099541       -1.52382828356526       -1.35408097510187
C           -6.36168349799756       -0.64586947587947       -2.29656240218710
C           -4.39788410224176       -1.95663632789009        0.47128966594989
O           -4.98579641107681       -3.18836334287330        0.43761423882842
C           -4.65267352251087       -4.10988881246192        1.44374351116362
C           -3.42807335769998       -1.54651029197145        1.36441064609487
C           -2.89819360748796       -0.26252080303725        1.29971008298637
C           -2.19413278040658        2.29544625133299       -1.16495354967612
C           -1.25408598851039        1.18734246484879       -1.68023397230475
C            0.03387018792786        1.14873610539254       -0.93173867423859
N            0.67113222743491       -0.03480165045825       -0.56820080561041
C            2.05138598857719       -0.01371071934395       -0.19949836073330
C            2.97246082593695       -0.45200946786588       -1.36413471839626
C            4.39358599662800       -0.36974441060225       -0.94058975044847
C            5.14549881576445        0.77777509189831       -1.07781859691748
C            6.45283421327297        0.83776216248408       -0.61064484107330
C            7.03125572388856       -0.24973107145381        0.03017093691020
O            8.30763201337869       -0.28795681214722        0.52231001330855
C            9.12387163753881        0.84230651489905        0.33396379228778
C            6.21658652267370       -1.39242527642594        0.22320999580636
O            6.70102981646423       -2.38742106689595        1.01544264768816
C            6.03346794006976       -3.58078749819993        1.21406141280565
C            4.94842949284830       -1.44895277912378       -0.28461029148158
C            0.01466953793514       -1.30865898139091       -0.65274467414370
C           -3.88988197685400        3.06335372720649        0.58490634106118
C           -4.51645880688001        2.76397693910231        1.94673324849084
C           -3.41431506542222        4.51552870278721        0.54866982280570
H           -4.63714877918351        0.91707408016308       -1.31523388485056
H           -6.81507132325085        0.22762440637526       -1.81496157490916
H           -7.13192865656776       -1.22075914557726       -2.80887432915850
H           -5.62153378971162       -0.30702465953503       -3.02987079684087
H           -4.87552364550685       -3.71609304152823        2.44090724222283
H           -5.27416868714890       -4.98338558093521        1.24923534728475
H           -3.59581655955733       -4.39716220766627        1.39954969199270
H           -3.07017747862707       -2.21970539917610        2.12809377633053
H           -2.15122544216092        0.02700991492266        2.02140467435930
H           -3.03420301534485        2.39536428310740       -1.85509028078969
H           -1.64586202226086        3.23857523822488       -1.17537008637549
H           -1.76698371344966        0.22991303644672       -1.62585923651645
H           -1.05100525396048        1.39241461181688       -2.74381129700407
H           -0.70656277376378        1.61870151248209        0.74955599522567
H            0.69418092685459        1.99244443324813       -1.05764562649899
H            2.21076740704553       -0.66342016158933        0.67633441822749
H            2.32328319936860        1.00679059024310        0.08676612320551
H            2.78843293556286        0.21320394789700       -2.20906873984943
H            2.72305978776341       -1.47441431283633       -1.64786891818158
H            4.71456008291416        1.63768879256168       -1.56627698530268
H            7.01141035459361        1.75038201657704       -0.75648092716752
H            8.71670994048854        1.72548740977908        0.84018728571148
H            9.26198025433372        1.06987402696564       -0.72898636288904
H           10.09151858899526        0.58597070924161        0.76954650404444
H            6.73917445350488       -4.21437741372372        1.75308078474945
H            5.14525525801013       -3.40010905195652        1.82906863399295
H            5.77371814848461       -4.07175917511054        0.27208149951827
H            4.35692860106407       -2.33457765451865       -0.14481831158795
H           -0.14411693372179       -1.63167718598557       -1.69178261999621
H           -0.95688222572119       -1.26774557958783       -0.15236127551617
H            0.63404860941274       -2.05847601748406       -0.15823475839004
H           -4.66386604010311        2.94244785619299       -0.18400511132687
H           -3.76239922353720        2.89571520993566        2.71616055350569
H           -4.88850775291944        1.74093990076485        1.99232290640253
H           -5.34221573293090        3.44651603883105        2.13821409380091
H           -2.61263194872341        4.66922159739369        1.26796111050879
H           -3.05564497125160        4.79475476166172       -0.43933451250967
H           -4.24556167346383        5.17115696102733        0.80511128724566
H           -0.64008844012428        2.80024593583912        2.74835057718838
