72
 energy: 80.715398593767 xtb: 6.6.1 (8d0f1dd)
N           -1.48770691070809        2.88030058847987        2.21345747796366
C           -1.51451685365717        2.04148668884268        1.28350169512671
C           -2.69368594679813        1.88000714453740        0.35052867811443
C           -3.21241020507506        0.45191767503711        0.45178125252348
C           -4.12796852524589       -0.03311796458147       -0.48556351883541
C           -4.66916888056682       -1.29922499850778       -0.37879423380404
O           -5.58477190527484       -1.84136573007795       -1.23366754675621
C           -6.08494640815430       -1.05690318532101       -2.28172132451101
C           -4.28288508302451       -2.13687666780643        0.68987275595911
O           -4.87505230067216       -3.36595316652601        0.71611092988085
C           -4.61038477234860       -4.21689391317791        1.80526387725619
C           -3.36770353739459       -1.66254465189108        1.61103276805913
C           -2.84310112757232       -0.38119527214106        1.49334199771996
C           -2.15530334220521        2.15495011133638       -1.08057140260268
C           -1.18541867068950        1.08966993909633       -1.60727125819692
C            0.17858987211828        1.22275670631649       -1.03317595252009
N            1.02742347832318        0.23320631618480       -0.83438301964663
C            2.39995386109660        0.48181701317799       -0.47544585052396
C            3.31384382968103        0.50165133810951       -1.71889777794476
C            4.71492352308858        0.20096324226597       -1.24862923834386
C            5.68501009288582        1.18191272027013       -1.11744313550978
C            6.95629361502779        0.89785978352877       -0.63373912139142
C            7.28993874984313       -0.39795877622706       -0.23596620303453
O            8.49444619918661       -0.78942731832110        0.25991412749758
C            9.51099883443287        0.15928145733302        0.36726479178675
C            6.28796063429477       -1.33432704809783       -0.36836994506413
O            3.11715270388079       -2.15962278237902        0.47742207280957
C            3.57393956000103       -2.98343298258394        1.43700826874047
C            5.06712502900836       -1.10745166225938       -0.87057844299126
C            0.66709186906525       -1.14336111888973       -1.04186007338420
C           -3.87979259988814        2.83615927300848        0.65439662415715
C           -4.47359766308589        2.56441480246398        2.03483697267728
C           -3.51178600230326        4.31296726572899        0.53747118754724
H           -4.43501530109942        0.59846648687484       -1.30189718183094
H           -6.57126973766167       -0.15079275440368       -1.90623653595394
H           -6.82188014283467       -1.68322063144389       -2.78137078136367
H           -5.29967282642269       -0.78496793284657       -2.99620743751777
H           -4.89536237159254       -3.75606750313683        2.75840131667255
H           -5.22474531136518       -5.10106354574922        1.64052161056838
H           -3.55740514576991       -4.51454244618286        1.85059760497777
H           -3.05973176305573       -2.27478170951080        2.44483463711783
H           -2.15693411260874       -0.03405932992959        2.25007027534059
H           -3.00300646221764        2.22513167937701       -1.76414742093950
H           -1.65372564991802        3.12364560856371       -1.08613706917253
H           -1.58843003708718        0.09474411174364       -1.41812641813201
H           -1.11236222002833        1.20218818358006       -2.69903223324314
H           -0.67761578401863        1.36779609424518        1.01952849110710
H            0.54979813267346        2.22322487097568       -0.87461076972642
H            2.74286734541348       -0.34774227115099        0.17372481134252
H            2.47537343146110        1.43205876367234        0.05642376856774
H            3.23612168541738        1.47058832278156       -2.22846280254876
H            2.97448782583647       -0.26811873020250       -2.41689165115107
H            5.47037036047966        2.20989149911837       -1.39164269959774
H            7.68976704563718        1.68361352197596       -0.55248056012135
H            9.22571213170242        0.97046141994225        1.04246313356927
H            9.79084723828518        0.57424642112369       -0.61133236547371
H           10.35208287917030       -0.38902279843270        0.78361422754887
H            4.54360497897336       -2.73867909782318        1.92258933541115
H            2.84733275058855       -3.01773812465447        2.27015376989319
H            3.63438305280165       -4.02138018251781        1.05944780869150
H            4.33080317326578       -1.89735213777351       -0.96950951907394
H            0.57593900155835       -1.37028610039999       -2.10585611279238
H           -0.28214316380700       -1.35841372310573       -0.55292628032158
H            1.44340552079281       -1.77610074410185       -0.60205015000418
H           -4.65222734510482        2.61478354782043       -0.09191188326532
H           -3.73926550161255        2.78529875554961        2.80219201233291
H           -4.78209037132782        1.52603095901661        2.12999721922638
H           -5.34299649651977        3.19791267976191        2.19031778116327
H           -2.69946538310449        4.55130903056776        1.21638571147500
H           -3.22368192004366        4.57773556589573       -0.47618825924091
H           -4.37513983537331        4.91424473334585        0.80880587794825
H           -0.62636789736394        2.91802276284424        2.75374863663440
