72
 energy: 16.998493027284 xtb: 6.6.1 (8d0f1dd)
N           -1.61918928718395        2.94530999783772        2.27310506911705
C           -1.62443426533094        2.15561585942445        1.29145013898408
C           -2.76470145089628        2.02534287968967        0.31588508352590
C           -3.31976508443702        0.60965648613523        0.38690575452297
C           -4.27716164539303        0.17381817806843       -0.53021075329656
C           -4.81589498887577       -1.09878817357946       -0.47192499311832
O           -5.76093474295187       -1.59424904861416       -1.32991545102511
C           -6.28967920807681       -0.72136099002234       -2.29770591569151
C           -4.39096251199910       -1.99510797197287        0.53034064578246
O           -4.97507367260534       -3.23083985852669        0.50400039584342
C           -4.63185166222613       -4.13076183840226        1.52141087963028
C           -3.43612696092756       -1.56645539044351        1.42973357066927
C           -2.91688289117917       -0.27969110380973        1.35921750374648
C           -2.18640560868103        2.28771757452940       -1.10828599560769
C           -1.23298369937856        1.21525590654207       -1.70212059169620
C            0.11723026997298        1.20036115046825       -1.05318264287947
N            0.76296750358130        0.00680636449402       -0.62811453343254
C            2.15340468823319        0.06383590319083       -0.31099215081885
C            3.04122835317060       -0.24275757715605       -1.54647441008013
C            4.45764357872445       -0.20908094113137       -1.14215217378909
C            5.28399794760167        0.88401723715788       -1.14769998788666
C            6.57539127500039        0.82192121271159       -0.62970066385080
C            7.04330072507710       -0.34237968662941       -0.00670827001659
O            8.33333877867437       -0.45263661874484        0.50708993743651
C            9.21080450665899        0.65485546056305        0.36102101871154
C            6.05631698850308       -1.37035674577529        0.14078904790072
O            6.12264048083751       -2.30005240488058        1.11673458467522
C            5.47089947866331       -3.47944179382190        1.31674830011529
C            4.89209938086489       -1.34061947900559       -0.53244543318451
C            0.15563017903284       -1.30002240260842       -0.74907473477089
C           -3.92868244842625        3.01977358005789        0.59325923853341
C           -4.56065427638338        2.72645144286288        1.95707426188359
C           -3.45897248184176        4.47853792069387        0.54137813416445
H           -4.59193965745170        0.85011817250682       -1.30907518569465
H           -6.74798969362717        0.16225481386434       -1.83949429994290
H           -7.04720401426869       -1.29545469164597       -2.82910775323223
H           -5.53105936569009       -0.38922891460316       -3.01478666643493
H           -4.86412570735874       -3.72085546780859        2.50937120633850
H           -5.24016395971956       -5.01378399710411        1.32940235126542
H           -3.56911216644387       -4.39980621041426        1.49080091352745
H           -3.07483403475761       -2.23098941975770        2.19899609644514
H           -2.18352450487415        0.02752598301248        2.08506812936167
H           -3.04079516746658        2.42189407019976       -1.78021509999060
H           -1.63399906675324        3.22872257725365       -1.09913274496027
H           -1.67632317801157        0.22164628115664       -1.61980700928831
H           -1.16885767735237        1.43731276954900       -2.78228930526261
H           -0.76544588977257        1.53322078256174        0.98688686889501
H            0.81482852596180        1.98521177741589       -1.31175363088468
H            2.38341655126346       -0.64240406182850        0.51797285160793
H            2.38025673537662        1.08152666682865        0.03667332673460
H            2.84536826823203        0.50089935892845       -2.31700201910905
H            2.79626497744514       -1.24595079814402       -1.90747652171785
H            4.90845895366516        1.79001693094972       -1.58890098583595
H            7.18774546199914        1.71687732380823       -0.69854250205278
H            8.84485640789417        1.54896010101486        0.88732573653802
H            9.37606059972929        0.91561994877931       -0.69202316374437
H           10.17299588357482        0.34987100743357        0.78936290285946
H            6.11848097069696       -4.11974207320662        1.93320615254788
H            4.57554751686643       -3.17221139307732        1.87883224802076
H            5.28092306058945       -4.01844330392996        0.38977016101497
H            4.24729958873504       -2.18740948804495       -0.42966607505649
H            0.01606020224153       -1.62856634375505       -1.79015514723582
H           -0.82769404594311       -1.31532864798030       -0.26268487032799
H            0.80437589690090       -2.04391509946801       -0.27145092693134
H           -4.69299771996143        2.86924206901007       -0.18266094616628
H           -3.79347820677645        2.87241097863205        2.70731947219897
H           -4.92667934146752        1.70098635845948        2.02383909212180
H           -5.38691062196103        3.40546762156030        2.15773380354441
H           -2.64628910516390        4.63216558355157        1.25385718351935
H           -3.10163830439333        4.75163321769339       -0.44990362931385
H           -4.29295578312102        5.13183712095824        0.79637834348346
H           -0.74619797415297        2.89313739382587        2.78507638104866
