72
 energy: 27.200039831993 xtb: 6.6.1 (8d0f1dd)
N           -1.64295302477919        2.97033135126708        2.28041268909945
C           -1.63754775794112        2.15675740405532        1.31758144168479
C           -2.76630748318107        2.01826342794102        0.32850927418288
C           -3.31678135253022        0.60110087156072        0.39596842443693
C           -4.26887053223497        0.16069018585900       -0.52457259411354
C           -4.80720904189304       -1.11221131165212       -0.46359865505123
O           -5.74917224793607       -1.61149851621184       -1.32369674632268
C           -6.27256511462650       -0.74136073872347       -2.29761034780010
C           -4.38704586753640       -2.00496849597264        0.54359841017625
O           -4.97127282497370       -3.24132254504247        0.51996573257136
C           -4.62808136984377       -4.13599077817371        1.54107282752933
C           -3.43706646737433       -1.57174073921409        1.44518897761784
C           -2.92034101369412       -0.28435773552027        1.37323872892285
C           -2.18405833121413        2.28635281521711       -1.09451432723250
C           -1.22807092110729        1.22360603447529       -1.70827656104143
C            0.13522791153924        1.21638959363569       -1.08158962655949
N            0.78604572133834        0.01978671919900       -0.64068407235666
C            2.17802002399055        0.08693387082065       -0.33524669845033
C            3.05918440394225       -0.18751396339764       -1.58486083748446
C            4.47644140878346       -0.17008686173913       -1.18813436559879
C            5.32018519163106        0.90810516217489       -1.16213336958361
C            6.60511420216351        0.81142050478676       -0.63338193935060
C            7.04499083115584       -0.37505049659079       -0.01811605275714
O            8.33501910736616       -0.49613689722257        0.50426940346022
C            9.22739497496092        0.60537559762764        0.36695656288618
C            6.03648812894688       -1.39158108590657        0.09466633106560
O            5.95380553164990       -2.25577916889475        1.12511631629870
C            5.33608222686455       -3.44795752082798        1.33336865221650
C            4.88484581165163       -1.31560682476281       -0.59887009236163
C            0.19094065951630       -1.29589256114143       -0.77065596425913
C           -3.93660201527398        3.00854630006617        0.59695173183363
C           -4.56904213496565        2.71641748704026        1.96175903935968
C           -3.46975830391776        4.46927056603017        0.53952607170443
H           -4.57974727670653        0.83417622713439       -1.30770831752371
H           -6.73206834238498        0.14485459186372       -1.84552958062148
H           -7.02764635657313       -1.31692989252317       -2.83110489483798
H           -5.51028947400746       -0.41130279743332       -3.01176321669653
H           -4.86291695959673       -3.72190433241484        2.52655679024974
H           -5.23330106563359       -5.02107602257484        1.34970349638375
H           -3.56460771044640       -4.40255831236273        1.51455160889212
H           -3.07605704338381       -2.23388725794156        2.21617606443783
H           -2.18997024771697        0.02665022815355        2.09957063943074
H           -3.04180626196112        2.42871187393237       -1.76160223960506
H           -1.63075212986610        3.22667242410596       -1.08004861153056
H           -1.65399193616692        0.22213679644227       -1.62021577848347
H           -1.19851784475569        1.44900106591955       -2.79041289663627
H           -0.78200605883098        1.51306281458580        1.04705037353995
H            0.83837777958199        1.98561318532106       -1.37779509366609
H            2.42549817171972       -0.63006783649143        0.48252632935974
H            2.39083123142530        1.10366470406553        0.02612471742450
H            2.86351755314421        0.57505780984441       -2.33613286848525
H            2.81241800566041       -1.18288306394081       -1.96698585881910
H            4.95802217787485        1.82596708622420       -1.58897911537131
H            7.23020641891334        1.70147333860495       -0.68291943000119
H            8.87377462197676        1.50276209402590        0.89799405011526
H            9.39987941932985        0.87297687133549       -0.68357609546004
H           10.18649951727974        0.28735480790801        0.79375512919909
H            5.97266338234783       -4.07940437769008        1.97057041259212
H            4.43902567431982       -3.11917252471543        1.88702141964575
H            5.15849306565748       -4.00288272098209        0.41522274935066
H            4.21889744784271       -2.14677314334111       -0.49940116041655
H            0.05550868832094       -1.62376413826694       -1.81320691686897
H           -0.79413585396180       -1.32422157087704       -0.28736593063843
H            0.84518482320982       -2.03944983571726       -0.29730074859315
H           -4.69882271619192        2.85165932571420       -0.18018642487256
H           -3.80188531428835        2.86661827579166        2.71161483347598
H           -4.92886525995937        1.68868978737770        2.03274780056962
H           -5.39738500699843        3.39347974602985        2.16140498379469
H           -2.65495407344772        4.62367160642214        1.25025656396240
H           -3.11347156997716        4.74095719248323       -0.45282200497101
H           -4.30439474327609        5.12172962327768        0.79415950529612
H           -0.77291061263275        2.91582287633666        2.79664170345901
