72
 energy: 113.801024124691 xtb: 6.6.1 (8d0f1dd)
N           -1.53152771008612        2.94274021942385        2.23212044237788
C           -1.58685145770329        2.07487683056379        1.32560932531438
C           -2.72167222962766        1.91531926874486        0.35010368689019
C           -3.24434122206561        0.48998326982283        0.43423868868730
C           -4.16918160082357        0.02065217112132       -0.50143354193412
C           -4.70380394316865       -1.25157555670436       -0.40669283113160
O           -5.61870264985158       -1.77844690930736       -1.26575955386213
C           -6.13587573228558       -0.95904736913917       -2.28869495252637
C           -4.30808655524980       -2.10510315239611        0.64936744273695
O           -4.89453394399483       -3.32949404276820        0.66198887947736
C           -4.61481200596582       -4.19523553530428        1.72924608517375
C           -3.39263398280739       -1.63477439736854        1.56690916185460
C           -2.88027175407990       -0.34799884907008        1.46572828288129
C           -2.17923317415963        2.20675535673336       -1.07296348031331
C           -1.19743442622793        1.15929599556462       -1.63416567325618
C            0.16727594294510        1.24268603118838       -1.05184603370360
N            0.94853103014441        0.18599319117767       -0.74764640832798
C            2.35073913086410        0.39976978829142       -0.46028046203503
C            3.20775649416469        0.40813127406411       -1.75915783653987
C            4.65886456972309        0.22202776890677       -1.42658739818937
C            5.62168777959797        1.16622851270952       -1.17843518839161
C            6.85940420563825        0.79922418265927       -0.65459886582552
C            7.13540871545031       -0.47589552579912       -0.15033943288303
O            8.33952260992716       -0.83046021223617        0.38297801919423
C            9.36563991912390        0.14375993305581        0.39133933517189
C            6.07099214216842       -1.35430214173640       -0.25861649629940
O            4.10211366572764       -1.83757879977787        0.75305926016229
C            3.98985816352296       -3.00147238082576        1.42314340324916
C            4.98740444367420       -1.07339624028511       -1.06569361473959
C            0.51669196596097       -1.19382629138202       -0.95635801360215
C           -3.91167804198117        2.88294463051711        0.64024202004569
C           -4.51167107327893        2.60727339451169        2.01825991610759
C           -3.51779634617932        4.35900572335289        0.53509423721738
H           -4.47574913315898        0.67046814813440       -1.30659754438076
H           -6.61451799706881       -0.05716972895690       -1.89089678356937
H           -6.88299345077839       -1.56496224001041       -2.79850741737769
H           -5.36226552769561       -0.66173006227617       -3.00482517975155
H           -4.88780436187629       -3.74317085924356        2.68745072287617
H           -5.22890952531786       -5.07562974753448        1.54963731496864
H           -3.55854449997235       -4.48219628527703        1.74759835398295
H           -3.06987274242327       -2.26042033510434        2.38099310897594
H           -2.19498551111721       -0.00494895886091        2.21922870769123
H           -3.04167158485724        2.30020252326654       -1.74411639323427
H           -1.68206493274811        3.17689190778954       -1.06421571013207
H           -1.59713019955830        0.16355498367725       -1.48650352801419
H           -1.15721144765534        1.34524133398836       -2.72614740455387
H           -0.79355940147865        1.34716396454930        1.21982907058315
H            0.66797727432490        2.19901204770845       -1.08594518691218
H            2.73181326231070       -0.38310896757286        0.21652193270764
H            2.45557012947478        1.36380235075946        0.04486766049740
H            3.06404994736378        1.33583945446097       -2.30438141386696
H            2.88660169872356       -0.44287370920834       -2.37062537759557
H            5.39527150292680        2.17788271076397       -1.46155825422643
H            7.63692016917250        1.53514127304080       -0.57925633208916
H            9.12702666273782        1.04068031476700        0.99904373730592
H            9.63569540100513        0.47711103853641       -0.61736170742658
H           10.24681693390507       -0.33974563170267        0.80553112977850
H            4.63516754082038       -3.28348698179259        2.26917823884178
H            2.98986801226652       -2.77150899596544        1.88453786576732
H            3.99697619995172       -3.87758045775528        0.74326873430981
H            4.19253589318236       -1.78631593240747       -1.23188324673007
H            0.41563073391646       -1.44532116267610       -2.01817852253458
H           -0.45616434104522       -1.39869216301446       -0.49480190861281
H            1.24994995041543       -1.87920553586608       -0.52880217970993
H           -4.68517452255870        2.68294663838636       -0.11352108071811
H           -3.77100689335423        2.81186034647221        2.78483494161056
H           -4.83147059331195        1.57086041161569        2.10438459457428
H           -5.37375734841586        3.25111222954996        2.18409355582868
H           -2.70255485643782        4.55316748541283        1.22155387614906
H           -3.20952816957994        4.63549367860410       -0.47162442628871
H           -4.36666716765732        4.98141125864128        0.80896185764654
H           -0.68433550355389        2.91998864688854        2.79982454196950
