25
 energy: -41.968251327086 gnorm: 0.003707002619 xtb: 6.6.1 (8d0f1dd)
C            4.31855845354416        1.32848501989434       -0.00492973727478
N            3.05696683369907        0.61597868732684        0.07204967925745
C            3.10066778160436       -0.73385455495259       -0.06914144960809
N            2.01812686808875       -1.44149590837436        0.00140438651275
C            1.05216865823531       -2.05051107481556        0.26056889049903
C            1.92860486173600        1.23116777504165        0.28602086660126
C            1.22196268928942        2.26363341168725        0.46635541890371
O            0.35085713299405        3.02688531586398        0.63826412284249
N           -2.23745445121575        2.74561845405079       -0.84770312207261
C           -3.36623993158558        2.58967164521287       -0.36125190948481
C           -2.24829613551948       -1.38770306721666        0.17971240771845
O           -2.23502715002097       -0.23414300641758        0.29223344113611
N           -1.99359515613377       -2.54235760542025        0.03274304771914
C           -2.55875957624239       -3.84848806255872        0.00075990768489
H            4.94072167346661        1.08120010618407        0.85826058405943
H            4.85587829843788        1.05088378638613       -0.91207237404738
H            4.13366123278615        2.39999623019167       -0.01021307199672
H            4.03586031599052       -1.22136700832829       -0.27766245141365
H           -1.44762546506193        3.00278865609566       -0.26049242689678
H           -4.18459448090968        2.32140180303813       -1.01958869972368
H           -3.62448974033754        2.70181605981008        0.69643864392009
H           -2.09387951687054       -4.45041743164230        0.78344400553706
H           -2.34456603114819       -4.29814938242010       -0.96894346072903
H           -3.63614903608969       -3.82590082112892        0.15745133865003
H            0.11707338535348       -2.50690048589847        0.03746358011335
