  25
        -42.12566530
 C          1.8982859127       -0.8508134362        1.8561368620
 N          1.7219440003       -0.7087661701        0.4269474474
 C          2.5708713296       -1.3228806810       -0.4469110033
 N          2.6562878872       -1.2050493288       -1.6948375760
 C         -0.5488713232        0.1509909564        0.1074290305
 C          0.8358655241        0.3308578243       -0.0120563380
 C          1.3715800395        1.4655701137       -0.5130006123
 O          1.8723079070        2.4099662055       -0.9571475061
 N         -1.6320972752        0.9711820048       -0.1309836837
 C         -1.8413063509        2.3669116720       -0.3555873633
 C         -2.4940901543       -0.0960474061        0.2377373974
 O         -3.6615914660       -0.2572336653        0.2966698820
 N         -1.3499801621       -0.9065888897        0.4924773621
 C         -1.1971418434       -2.3228562724        0.6251452616
 H          2.3169209606       -1.8297709874        2.0797262553
 H          2.5769155653       -0.0860762725        2.2461918950
 H          0.9396111071       -0.7455391490        2.3620649069
 H          3.2468155462       -2.0317707577        0.0221538816
 H         -1.1449391125        2.7406143164       -1.1067751910
 H         -2.8622721215        2.4988969300       -0.7130476403
 H         -1.7161872335        2.9429245519        0.5668016653
 H         -0.5729737177       -2.5701926991        1.4854288390
 H         -0.7586832292       -2.7631591193       -0.2742232562
 H         -2.1913763122       -2.7412872206        0.7780003044
 H          2.0742604805       -0.5724192486       -2.2276972171
