72
 energy: -99.378997271229 gnorm: 0.007327647254 xtb: 6.6.1 (8d0f1dd)
N           -2.83726457747876        2.19563505976296        2.80662302843312
C           -2.18775166660122        2.13687334681312        1.57066137443404
C           -3.12310659056803        1.81106156985804        0.35822738836623
C           -3.79559263909907        0.45522259171862        0.49048349888883
C           -4.48493122956283       -0.08321998129213       -0.59836319403819
C           -5.10892104395395       -1.31963283684529       -0.52632983728274
O           -5.79144088948589       -1.90869010103255       -1.52882676742190
C           -5.96840370696840       -1.22243774507802       -2.74520190452212
C           -5.04855185190164       -2.06604702442408        0.68413266019809
O           -5.66682206668858       -3.26063513270768        0.66436821701020
C           -5.67614138435900       -4.04744037348102        1.83352345342972
C           -4.38052664359387       -1.51406131085773        1.76828116111170
C           -3.76735478927596       -0.27544659011183        1.67257702354949
C           -2.19999062055300        1.80384977154536       -0.89456769011241
C           -1.29767044213425        0.61788203423919       -0.91086980896859
C            0.00409745293962        0.68866079431600       -0.57376665940814
N            0.86850929402129       -0.35177875166699       -0.47950398675042
C            2.26223162748599       -0.12972785056207       -0.21127534147087
C            3.12701794556165       -0.13150388680766       -1.49114940270497
C            4.57076963766360        0.05041409031763       -1.12750634733745
C            5.18267587328861        1.29264259487170       -1.21298893093293
C            6.50527547586283        1.46185398947909       -0.83550835287313
C            7.24557360412082        0.39087955643467       -0.35197235891119
O            8.52675615784621        0.43804280749067        0.04942833341060
C            9.22728892185261        1.65932525978896       -0.01231971122365
C            6.62626998785171       -0.88899458393425       -0.25795322943911
O            7.41266069952783       -1.87087430492642        0.21924127455124
C            6.89336799465355       -3.17338355426262        0.34718356229097
C            5.30359108906984       -1.03280190997212       -0.64732084953359
C            0.44544313185644       -1.68405750275241       -0.82469991276969
C           -4.23069281713536        2.89309971069257        0.23245126768200
C           -5.21345395782227        2.76402024487452        1.39075040336669
C           -3.69648625961721        4.32217332730671        0.15585403949776
H           -4.54248778049007        0.47457610098679       -1.51879684997863
H           -6.50282822322518       -0.27890233449628       -2.59849352027415
H           -6.56854501460156       -1.88234884277417       -3.36871064880198
H           -5.01191941586343       -1.02896489050457       -3.24131451838193
H           -6.17976211150072       -3.53343952163771        2.65741233630579
H           -6.23046605517962       -4.94798437430201        1.57666984532957
H           -4.66163600373893       -4.32030441809517        2.14001597972307
H           -4.33637582685698       -2.04355739270977        2.70599634991008
H           -3.29410575150535        0.13838797485677        2.54695065241252
H           -2.82184581106453        1.80198252875978       -1.79092925977687
H           -1.60582497865359        2.71767122147299       -0.90097910512001
H           -1.75553042052108       -0.32492491140458       -1.16235884854616
H           -1.62864266418958        3.04601964454627        1.33260883067859
H           -1.47490272166598        1.29154816776078        1.59717080918312
H            0.43700435337534        1.64960281795371       -0.32776850714886
H            2.62304011533908       -0.91336276360215        0.46209951826340
H            2.38197458268705        0.83066910058844        0.29466193571605
H            2.79485808642197        0.67586594915156       -2.14484291567384
H            2.98818956250847       -1.07890667532346       -2.01443029365273
H            4.62953295425880        2.14070100002941       -1.58635746301529
H            6.95499654664232        2.43743152936098       -0.92166709336768
H            8.75966535761223        2.42116218903700        0.61856571351651
H            9.29808443402036        2.02802199797349       -1.03985613956862
H           10.22540558050664        1.44229524905399        0.36330556148369
H            7.70723989845975       -3.77446259908689        0.74789921479259
H            6.04773622864582       -3.20108506071804        1.04162826737728
H            6.58632786428222       -3.57944831838258       -0.62146932179067
H            4.82904985030279       -1.99991799490350       -0.58997041260950
H            0.19419168444437       -1.76083713267187       -1.88651934528446
H           -0.43568468495830       -1.96069616632128       -0.24190784652299
H            1.24291031613807       -2.38822567531221       -0.60184128188973
H           -4.76594618227251        2.69051186569937       -0.70292479053142
H           -4.63264082354909        2.64422313632460        2.31730322289248
H           -5.84648042700427        1.88709969847683        1.28294772959167
H           -5.83852979866662        3.64858630395381        1.47448733095558
H           -3.23684080963743        4.62145075177309        1.09396515947377
H           -2.97477281440359        4.44259750383198       -0.64786369177546
H           -4.52270883701829        5.00243914374119       -0.03691793450352
H           -2.65164037882272        3.02776141061586        3.34983377273836
