  25
        -42.07846480
 C          2.5012213489        0.8385776679        1.3020403836
 N          1.9404308063       -0.0866838419        0.3427080178
 C          2.7250610917       -0.9588296321       -0.3493191016
 N          2.4034107557       -1.7604705291       -1.2634563575
 C         -0.1934892278       -1.1073260992        0.0443149629
 C          0.5489097168        0.0224393528        0.0750804755
 C          0.0649019831        1.3171161281       -0.2363111719
 O          0.6392687939        2.3392317858       -0.4471437307
 N         -1.4889288135        1.4014312129       -0.2574658984
 C         -2.0370309746        2.4958158436       -1.0647425294
 C         -2.1631207667        0.7226010776        0.5457431356
 O         -2.6650774966        0.0370908171        1.3253204042
 N         -0.7951893781       -2.1110106780        0.1908159939
 C         -1.3387759804       -3.3303073531       -0.1981332701
 H          1.8513808120        0.9030650034        2.1758030527
 H          3.4806075895        0.4858978732        1.6151419680
 H          2.6068083135        1.8369890778        0.8693978408
 H          3.7665267166       -0.9524588695       -0.0438551358
 H         -1.2269200077        3.2085683012       -1.2288217495
 H         -2.3800019323        2.1026399157       -2.0213124299
 H         -2.8575992437        2.9871052430       -0.5471788293
 H         -0.7599208912       -4.1259798137        0.2759385135
 H         -1.3231467860       -3.4646418422       -1.2822859294
 H         -2.3628182859       -3.3862024204        0.1755316833
 H          1.4557293778       -1.7869568237       -1.6208544559
