25
 energy: -42.175375456737 gnorm: 0.006891794099 xtb: 6.6.1 (8d0f1dd)
C            3.27426554862093        1.13757633274181        0.02703796476508
N            2.41699717868906        0.14465690680183        0.00852933627947
C            2.57310343868316       -1.09988346809522       -0.49426461339156
N            1.41111765735731       -1.80862128145500       -0.37508440343271
C            0.47348394403011       -1.07484367339493        0.23794399581234
C            1.06953847671149        0.24493877560864        0.55439829939361
C            0.18067385168877        1.34673591652080       -0.10289137640884
O            0.64723046172651        2.32566718077570       -0.61113532091035
N           -1.14878852788373        1.06473512998735        0.02076910416851
C           -2.10445693865415        2.13251995944976       -0.27048576045706
C           -1.72478210839236       -0.16716995874628        0.34020677881847
O           -2.89714922417315       -0.30091573651899        0.54535404906230
N           -0.85496535610311       -1.27479438530262        0.31178209844832
C           -1.43553757444761       -2.60351574496164        0.22592572540375
H            1.08503395591275        0.50597226419965        1.62116807422053
H            4.24212196934941        1.00530595434053       -0.41879428144397
H            2.99075798280283        2.08070002318710        0.44910297329044
H            3.47202517848932       -1.47715576883297       -0.93164552297420
H           -1.56696398604559        3.07582692298053       -0.30866237452518
H           -2.59548403373832        1.95044208016524       -1.22559835925250
H           -2.85839963900244        2.15171232289473        0.51470245185938
H           -0.91644438876480       -3.28212360788773        0.90051820324484
H           -1.39059014531736       -2.98222970955457       -0.79676634742570
H           -2.48010077991451       -2.52433670536567        0.52440244561220
H            1.29774457247424       -2.75296118794042       -0.71534152225955
