25
 energy: 62.288196588263 xtb: 6.6.1 (8d0f1dd)
C            3.73755691480288        0.88660181119904        0.11285550935857
N            2.71573896421882       -0.10251312516246        0.00205208745115
C            2.98474676982664       -1.43287661050202       -0.07076805113373
N            1.81032672696906       -2.11516625059376       -0.08551857448289
C            0.72274473295045       -1.25209766776793        0.02139305212057
C            1.32414809077700        0.08539048798142        0.13837995775356
C            0.72778258037999        1.27325468558093        0.14580361737018
O            0.15590151521624        2.29023485864782        0.35826025041635
N           -2.83049004584986        1.48881599854386       -0.24439762763694
C           -3.21361964419864        2.83946295326280       -0.17657694557022
C           -3.23949762413997        0.40599681613078        0.00160253290906
O           -3.57017417284766       -0.69103700725492        0.16611835086259
N           -0.53124732321082       -1.45051784830053        0.02656095443926
C           -1.08891048577548       -2.76671797760621       -0.03702389947695
H            3.70625542314369        1.43051858824542        1.05818149078484
H            4.68079608392333        0.35559692069395        0.12637462378304
H            3.74345654232588        1.55450101299193       -0.74943691167342
H            3.96125101070336       -1.85352536934162       -0.15647053814777
H           -2.30789951150875        3.42736579862878       -0.07139312986926
H           -3.72783305649236        3.12247267546898       -1.10286256590105
H           -3.89268541506104        2.99326517633054        0.66800613672864
H           -0.51508221089561       -3.43843765667733        0.59535111975035
H           -1.08387271687848       -3.16052865401492       -1.05836872542018
H           -2.12026826522844       -2.71201646728810        0.31345866220849
H            1.75963883849184       -3.11352343365491       -0.16940938452271
