25
 energy: 71.782370301615 xtb: 6.6.1 (8d0f1dd)
C            3.61904763328118        0.94558993241092        0.10061267900432
N            2.53410824292551        0.02186791449458        0.08195990266969
C            2.76403784724778       -1.29350597009977       -0.12561863868377
N            1.59724724534317       -1.98795477055615       -0.08851567372965
C            0.53772818403074       -1.09172965768294       -0.01558815002319
C            1.13191740661598        0.22225669450298        0.12374092755743
C            0.42082085805238        1.35926005974581        0.11893409176528
O            0.26465235093558        2.50176254588435        0.40442435303540
N           -2.17858552369483        1.24080847641347       -0.20477301653812
C           -2.85541959943958        2.49768048108899       -0.19507551301587
C           -2.65036451297220        0.15949036136193        0.01640240015176
O           -3.31531020406866       -0.77437895372889        0.18579155960670
N           -0.72651138814284       -1.29200809139727        0.01011385259737
C           -1.19454885422619       -2.64738433738460       -0.02479842469348
H            3.74598003229150        1.39727641161824        1.07348725899652
H            4.52125704313080        0.36380381084657       -0.15101207831860
H            3.54997095396517        1.77435314966081       -0.59483253904710
H            3.71356359805003       -1.74594942139907       -0.25127994808898
H           -2.12278528998459        3.28172113814362       -0.05615649232510
H           -3.37750209924278        2.69135651893074       -1.13081739885249
H           -3.56713935196192        2.59608219184843        0.61620025394396
H           -0.60994954535920       -3.24279146926369        0.67900100374666
H           -1.08062637071602       -3.03600348654047       -1.04257972770496
H           -2.24648817662496       -2.75599951683932        0.25360621579244
H            1.54845810695862       -2.98311893423627       -0.17489240099589
