25
 energy: 0.879076693984 xtb: 6.6.1 (8d0f1dd)
C            3.35059104771131        1.12704240715137        0.10086480050074
N            2.33153291349711        0.12151050908055        0.00391460727022
C            2.60210371716779       -1.25474079422052        0.00772246299188
N            1.38979323185553       -1.91249195559869       -0.04480454894991
C            0.38694653708706       -1.01009981204161       -0.01570274020678
C            0.90502792322678        0.27787874653390        0.03154496755295
C           -0.00453657402557        1.38098017126376        0.05832326463802
O            0.31572238238594        2.57169458770584        0.09863661009525
N           -1.45149747858025        1.06243523806338       -0.03139738631474
C           -2.37551122920857        2.20964215946349       -0.08296156008936
C           -1.96008915629092       -0.19844784777604       -0.00158943664347
O           -3.12999044375441       -0.48293156773070       -0.01005454254702
N           -0.96677382197573       -1.24591694161928        0.00660633729427
C           -1.40388170915681       -2.63080366034262       -0.04772239415425
H            3.75369243805623        1.23452092296723        1.12744041870868
H            4.19674514206152        0.86922688634361       -0.55324627159990
H            2.94339925024726        2.07709294877151       -0.22860641294769
H            3.56871647364918       -1.71960851131655       -0.01071357983071
H           -1.78154951257498        3.12209683034930       -0.04824564604163
H           -2.96771733681137        2.23771297647453       -0.99748303276605
H           -3.05625235743874        2.21268260828241        0.76670440899641
H           -1.01347316355926       -3.20765724671220        0.79628333636478
H           -1.09884335391440       -3.11865550719462       -0.98142089150714
H           -2.48855597852689       -2.61941230264028        0.01764253110731
H            1.30539268713714       -2.91721685487335       -0.08093472134243
