25
 energy: -42.486651606073 xtb: 6.6.1 (8d0f1dd)
C            3.43576626009641        0.96828416700501        0.18286649824067
N            2.41773078160162       -0.03495188659361       -0.00323489434287
C            2.71605972542063       -1.32306969133911       -0.11734913445895
N            1.57446568740006       -2.05499283419947       -0.16102142467823
C            0.52130077358049       -1.17850133452271       -0.06097502992627
C            1.05361607982576        0.09555152066863        0.03412357288025
C            0.13797630617598        1.26978880334352        0.18562356906532
O            0.60776179958902        2.38002581679042        0.40290955435418
N           -1.17958445988477        0.98711615238829        0.12430840216786
C           -3.09326024677733        2.94795386384104       -0.37716828194346
C           -1.72010116492109       -0.20236085414847        0.17829751303498
O           -2.86118084152245       -0.53300939770682        0.38570014123861
N           -0.77931421789526       -1.39958089989856        0.00265177624167
C           -1.25663188450872       -2.74836463416464        0.02834115790260
H            3.96404654619521        0.74608885761630        1.11988100175745
H            4.14971220110524        0.89882549178690       -0.63891455347053
H            3.00995433199034        1.96121417436007        0.23062108537588
H            3.68818017708162       -1.69536939202785       -0.31536886736944
H           -2.39273797631243        3.73134794617292       -0.37101914425139
H           -3.51197415886657        2.65401108050865       -1.30194194470405
H           -3.62991772724913        2.73112069847046        0.49929401514454
H           -0.80573776275821       -3.26743577465617        0.87859123988031
H           -0.94465505462061       -3.23279094501695       -0.89643926694226
H           -2.34639783759691       -2.76724435295168        0.08531175104681
H            1.55043892312123       -3.05520956293231       -0.24154112611103
