  72
        -99.35613464
 N         -2.2299564725        3.7168296697        1.9836250228
 C         -1.8806665175        2.3215778618        1.5064705478
 C         -2.9223411929        1.9783684146        0.4253247558
 C         -3.3994636362        0.5446438066        0.4326920145
 C         -4.4405328310        0.2028359877       -0.4387375790
 C         -4.9514784638       -1.0800706643       -0.4999073572
 O         -5.9469447233       -1.4850041293       -1.3188678358
 C         -6.5470704397       -0.5485229206       -2.1814199506
 C         -4.4179293346       -2.0844000577        0.3494878588
 O         -4.9853055932       -3.3049129896        0.2403488300
 C         -4.5566987562       -4.3332137991        1.1011924818
 C         -3.3795065314       -1.7476282634        1.1984736232
 C         -2.8702656490       -0.4520782314        1.2336448634
 C         -2.3724185763        2.3459650481       -0.9728931608
 C         -1.4353335675        1.2980302453       -1.5992658533
 C         -0.1097917245        1.2073075770       -0.9490991322
 N          0.4860918846        0.0732197323       -0.5540967466
 C          1.8826376068        0.0811959512       -0.1935127837
 C          2.7910538047       -0.3010533259       -1.3792598609
 C          4.2327829335       -0.2234392276       -0.9653137302
 C          4.9312482180        0.9673428386       -1.0567555743
 C          6.2539741192        1.0472297503       -0.6466064469
 C          6.9013279298       -0.0648518646       -0.1316215975
 O          8.1823350314       -0.1021516488        0.2935404186
 C          8.9665573313        1.0631872186        0.1952071187
 C          6.1915700021       -1.2901629729       -0.0294770724
 O          6.8977168134       -2.3242037644        0.4801911379
 C          6.2871415472       -3.5879762924        0.5743941380
 C          4.8714075208       -1.3465257378       -0.4430970649
 C         -0.1296922979       -1.2170907229       -0.7443491482
 C         -4.0863536319        2.9834272681        0.7735798484
 C         -4.9771030701        2.4527136036        1.9017148820
 C         -3.3700105183        4.2328886004        1.1782437520
 H         -4.8625162379        0.9674377247       -1.0686713505
 H         -7.0158730471        0.2691928517       -1.6251151785
 H         -7.3133731166       -1.0996725384       -2.7226723783
 H         -5.8249605041       -0.1393117932       -2.8957325758
 H         -4.7058638355       -4.0648872685        2.1516647506
 H         -5.1754214630       -5.1947407864        0.8582938312
 H         -3.5045122471       -4.5860326656        0.9344304491
 H         -2.9474332329       -2.4889931282        1.8509752335
 H         -2.0483680433       -0.2649902692        1.9069082542
 H         -3.2124929651        2.4767838973       -1.6542256839
 H         -1.8525149046        3.3036327659       -0.9173940211
 H         -1.9378147154        0.3335141365       -1.6153568846
 H         -1.2806574093        1.6083457907       -2.6414252629
 H         -0.8663972088        2.2874129311        1.1084016005
 H          0.4808011492        2.1068542545       -0.8704907170
 H          2.0430396083       -0.6236481469        0.6267666213
 H          2.1600463919        1.0783535460        0.1547770942
 H          2.5984136907        0.3893356781       -2.2024243606
 H          2.5487528338       -1.3111325068       -1.7110782913
 H          4.4524862471        1.8452294760       -1.4640584755
 H          6.7746638560        1.9861554501       -0.7394480093
 H          8.5568866204        1.8756129150        0.8037946936
 H          9.0614858566        1.3964965533       -0.8428300606
 H          9.9479729913        0.7876640537        0.5763603649
 H          7.0489350100       -4.2512114173        0.9795061328
 H          5.4272414861       -3.5702755199        1.2523202435
 H          5.9719145192       -3.9565892514       -0.4069247505
 H          4.3244432328       -2.2741339628       -0.3775149465
 H         -0.2028771330       -1.4751477654       -1.8041069624
 H         -1.1315611026       -1.2266186579       -0.3116549059
 H          0.4698124716       -1.9732282090       -0.2433353651
 H         -4.7163828038        3.1720026291       -0.0951511019
 H         -4.3993577219        2.1585562795        2.7753917504
 H         -5.5439758182        1.5864252262        1.5736053034
 H         -5.6762358149        3.2302590241        2.1966426159
 H         -1.4372167621        4.3591470468        1.9952271357
 H         -3.0409242857        4.8699419683        0.3640861664
 H         -2.5965208009        3.6189455949        2.9327083465
 H         -1.9491718261        1.6487914606        2.3570418683
