  72
        -99.36861801
 N         -2.1080022103        3.0856855111        2.6117169245
 C         -1.9077201815        2.3070996447        1.6557770826
 C         -2.8241162143        2.1558688582        0.4718108453
 C         -3.2986975104        0.7150835045        0.3847364754
 C         -3.9566383090        0.2649940932       -0.7620499863
 C         -4.4150733895       -1.0376123651       -0.8691302427
 O         -5.0624857126       -1.5514707243       -1.9362611130
 C         -5.4253544386       -0.7004387012       -2.9977848003
 C         -4.2044681087       -1.9447695439        0.2043189042
 O         -4.6590632605       -3.1984666649        0.0036620265
 C         -4.5440908254       -4.1420489687        1.0431369608
 C         -3.5692246948       -1.4862448991        1.3473678621
 C         -3.1281231773       -0.1715690427        1.4364728642
 C         -1.9689225836        2.5300868792       -0.7700247116
 C         -0.9971553911        1.4379379267       -1.2629009433
 C          0.0889315539        1.1396282326       -0.3038055795
 N          0.4468527108       -0.0710194227        0.0899112765
 C          1.4274463289       -0.2567667948        1.1561155968
 C          2.5602021484       -1.1569599790        0.7681141684
 C          3.7811551653       -0.7489349788        0.3529790882
 C          4.1293130863        0.7062273059        0.2044929350
 C          5.4816839148        0.9748705678       -0.3662978367
 C          6.3869609744        0.0082849802       -0.6083136683
 O          7.6317557305        0.1710331347       -1.0967138316
 C          8.0931236154        1.4771815330       -1.3512929101
 C          6.0426475815       -1.3914583962       -0.3533653238
 O          7.0432492476       -2.2416529835       -0.6004454992
 C          6.8532753923       -3.6214731638       -0.3823476111
 C          4.7944377825       -1.7204585910        0.0807079666
 C         -0.2211735178       -1.2598652597       -0.3840043146
 C         -4.0797566200        3.0751055956        0.5418998041
 C         -4.9582788768        2.7262867091        1.7412322720
 C         -3.7391985025        4.5626322333        0.5689474967
 H         -4.1249525107        0.9501331785       -1.5766060594
 H         -6.0559176959        0.1244362747       -2.6528282211
 H         -5.9919535302       -1.3217029888       -3.6885722219
 H         -4.5459443118       -0.2998802698       -3.5129120982
 H         -5.0788452912       -3.8178310398        1.9406738052
 H         -4.9995457688       -5.0536495791        0.6616334384
 H         -3.4962270483       -4.3383746763        1.2927836600
 H         -3.4218283813       -2.1429843067        2.1892640685
 H         -2.6671289979        0.1559206725        2.3553695585
 H         -2.6394541785        2.7664479806       -1.5961075768
 H         -1.4024066377        3.4330264787       -0.5383952711
 H         -1.5592081561        0.5407358284       -1.5134116631
 H         -0.5439036935        1.8225438858       -2.1849832703
 H         -1.0052257085        1.6769936806        1.5562872219
 H          0.6862513686        1.9680366190        0.0480342999
 H          0.8968701329       -0.6984143775        2.0094008273
 H          1.8001268319        0.7242079587        1.4532253599
 H          3.3780452969        1.2163421071       -0.4060879447
 H          2.3831199278       -2.2169647642        0.8704823710
 H          4.0893210908        1.1771174703        1.1985309532
 H          5.7079668822        2.0124774657       -0.5510594634
 H          8.0701696615        2.0908558774       -0.4457470998
 H          7.5039010089        1.9620074605       -2.1358124394
 H          9.1217192224        1.3657717206       -1.6881452994
 H          7.8069343230       -4.0899404082       -0.6170891529
 H          6.5924469167       -3.8273214621        0.6598077797
 H          6.0780796787       -4.0249171212       -1.0404805125
 H          4.5311485659       -2.7543220307        0.2395196501
 H         -0.1939030379       -1.3073339870       -1.4727803621
 H         -1.2627556083       -1.2811917959       -0.0516815759
 H          0.2899910698       -2.1331529978        0.0091800241
 H         -4.6591598295        2.8753709236       -0.3671559406
 H         -4.4294853091        2.9385741279        2.6649705587
 H         -5.2431424972        1.6769301129        1.7289634244
 H         -5.8638551746        3.3265200371        1.7164643237
 H         -3.1288934318        4.7923536218        1.4365815326
 H         -3.2179789062        4.8777209688       -0.3310200870
 H         -4.6595826601        5.1365071052        0.6386902489
 H         -1.4049685928        3.1296634786        3.3429304406
