25
 energy: -42.175338830815 gnorm: 0.007766797272 xtb: 6.6.1 (8d0f1dd)
C            3.27376554111082        1.13886912227318        0.02966252274140
N            2.41692764506877        0.14515244425032        0.01095869274978
C            2.57210773202006       -1.09797068190097       -0.49477901428043
N            1.41025865422866       -1.80660655308316       -0.37680161229898
C            0.47312389033590       -1.07519185237616        0.23895497613620
C            1.06946598436545        0.24279609739618        0.55769723408622
C            0.18097240378135        1.34364569986824       -0.10600186914688
O            0.65060656900822        2.31810271511448       -0.62015958739395
N           -1.14825171336095        1.06335472222451        0.01807543341016
C           -2.10294605038093        2.13269653461105       -0.27121836441374
C           -1.72493898288919       -0.16792984741208        0.34112960025636
O           -2.89698615986600       -0.29933336946203        0.55024796955697
N           -0.85587566176877       -1.27479430168932        0.30934967929936
C           -1.43620694910774       -2.60391671468500        0.22643113734098
H            1.08339781947352        0.50527101713219        1.62396820118301
H            4.24110120997741        1.00824018019537       -0.41821975685818
H            2.98925476651967        2.08206895137777        0.45132042169242
H            3.46988473882767       -1.47511302799898       -0.93473077048390
H           -1.56531342028287        3.07610743449760       -0.30480598801674
H           -2.59261759759880        1.95457705124259       -1.22774301957509
H           -2.85803904607022        2.14901132180659        0.51310550696500
H           -0.91617200938887       -3.28097379843116        0.90185834891987
H           -1.39182646351855       -2.98416408754891       -0.79566783097961
H           -2.48060681954960       -2.52442496016970        0.52533807846251
H            1.29934543316493       -2.75123555563233       -0.71679837145097
