  72
        -99.27856245
 N         -1.9679466213        2.0874505110        2.7555043324
 C         -2.6509480010        1.5295908404        1.8622232386
 C         -3.1752539713        2.0749634454        0.5271673673
 C         -3.7937511638        0.6799861956        0.3781569175
 C         -4.5953599563        0.2018721683       -0.6795067643
 C         -5.0307541281       -1.0751490681       -0.8692947016
 O         -5.7717036686       -1.5072450986       -1.8911810142
 C         -6.1852314161       -0.6113188227       -2.9046771821
 C         -4.6311361237       -2.2229227248        0.0205417837
 O         -5.1571813060       -2.1556051875        1.2632153563
 C         -4.8562465076       -3.2556903719        2.0982535573
 C         -3.8291481061       -3.1398505648       -0.4579558220
 C         -3.2837726627        0.2528218018        1.5766011460
 C         -2.0932413673        2.4183791045       -0.5030492920
 C         -1.2640592359        1.2316439589       -0.9983783311
 C         -0.2628355184        0.7197128729        0.0439055119
 N          0.6490181544       -0.2443357704       -0.5205922400
 C          2.0424545387       -0.1799364283       -0.1603717463
 C          2.9397550425       -0.1593387701       -1.4167223349
 C          4.3862561631       -0.0897863410       -1.0306438855
 C          5.0808265808        1.1128730126       -1.0605785566
 C          6.4140451428        1.1758083483       -0.6902119964
 C          7.0861866486        0.0350659614       -0.2680965979
 O          8.3736687594       -0.0251444172        0.1064033693
 C          9.1631507068        1.1420134857        0.0716571075
 C          6.3789912182       -1.2025529198       -0.2178447366
 O          7.0983254067       -2.2545198913        0.2097293664
 C          6.4930467224       -3.5237740977        0.2879011179
 C          5.0464325971       -1.2387012597       -0.6015675191
 C          0.1209375433       -1.5718726753       -0.6795295731
 C         -4.1958817130        3.2169773658        0.6914533919
 C         -5.3014327196        2.8348919531        1.6746972514
 C         -3.5092210953        4.4980988785        1.1573940028
 H         -4.8818993041        0.9545374274       -1.4029243841
 H         -6.8223264362        0.1786956660       -2.4986689209
 H         -6.7586702761       -1.2117634727       -3.6085987439
 H         -5.3265437069       -0.1673596447       -3.4163078385
 H         -3.7761354679       -3.3275514115        2.2724958072
 H         -5.3814109967       -3.0802149720        3.0357420011
 H         -5.1973156835       -4.1904698329        1.6421244844
 H         -3.3790977454       -3.3445940969       -1.3998310562
 H         -3.3489852950       -0.6575737410        2.1400634731
 H         -2.5823880739        2.8732387016       -1.3676532606
 H         -1.4262610141        3.1612484145       -0.0648203320
 H         -1.9298468997        0.4228169692       -1.3054250125
 H         -0.6983744712        1.5479546734       -1.8769090801
 H         -0.8096078907        0.2762398655        0.8873678610
 H          0.3070454278        1.5700924506        0.4212266000
 H          2.3237768266       -1.0401538136        0.4609953556
 H          2.2346113504        0.7277486575        0.4145348693
 H          2.6679724012        0.7051157324       -2.0220787796
 H          2.7531312685       -1.0603603101       -2.0023780801
 H          4.5824102870        2.0126098408       -1.3864278928
 H          6.9279682447        2.1221583347       -0.7350022391
 H          8.7710136267        1.9106831995        0.7439378271
 H          9.2350843765        1.5452230305       -0.9426798400
 H         10.1512324004        0.8359593587        0.4099440876
 H          7.2696137756       -4.1963126815        0.6470633182
 H          5.6573143972       -3.5253220171        0.9946444942
 H          6.1450225428       -3.8627059572       -0.6924643945
 H          4.5070156102       -2.1726684161       -0.5809934839
 H         -0.8566169599       -1.5265735114       -1.1548210342
 H          0.0107329453       -2.0872409343        0.2855211829
 H          0.7865225546       -2.1600504433       -1.3092860918
 H         -4.6545857926        3.3926580973       -0.2897079607
 H         -4.8908460253        2.7001645753        2.6727159325
 H         -5.7975516649        1.9130402986        1.3782391699
 H         -6.0468782520        3.6249579980        1.7176628768
 H         -2.8953913589        4.2908817240        2.0309228491
 H         -2.8806883409        4.9195200913        0.3778469784
 H         -4.2555538318        5.2409493508        1.4264461001
 H         -1.7394288695        1.5610144173        3.5916760331
