  72
        -99.38073147
 N         -2.1260710706        2.3017891389        2.3584433431
 C         -1.9065484921        2.5583222492        1.0337491945
 C         -2.3286340409        1.8136094809       -0.0111601231
 C         -3.0942518123        0.5767549302        0.1608620990
 C         -4.1895534514        0.2882975472       -0.6627566894
 C         -4.9360774352       -0.8638655541       -0.4972396720
 O         -6.0190319404       -1.2032800353       -1.2318438672
 C         -6.4985079744       -0.3056218180       -2.2033070472
 C         -4.5752992493       -1.7946952900        0.5138189226
 O         -5.3597995347       -2.8889781273        0.6053882853
 C         -5.0989235428       -3.8326927834        1.6174098070
 C         -3.4736718696       -1.5199872744        1.3108852479
 C         -2.7455561116       -0.3527636206        1.1396591504
 C         -2.0158061873        2.2578993466       -1.4133937420
 C         -1.1462874878        1.2190250583       -2.1627334947
 C          0.1900906653        1.1097075371       -1.5483242351
 N          0.7071333926        0.0256220070       -0.9917436073
 C          2.0710027383        0.0346761071       -0.5193837130
 C          3.0456119601       -0.5224769782       -1.5765882985
 C          4.4620397753       -0.3741930170       -1.0963666536
 C          5.1348776118        0.8254623629       -1.2598465682
 C          6.4284289853        0.9847142916       -0.7875296582
 C          7.0754268529       -0.0561196385       -0.1382085416
 O          8.3250130386       -0.0133310574        0.3641850370
 C          9.0744432704        1.1727656152        0.2369199163
 C          6.3956451846       -1.2931676409        0.0291485953
 O          7.1018870203       -2.2536701254        0.6608289389
 C          6.5276992866       -3.5263613602        0.8371037457
 C          5.1011232792       -1.4274061033       -0.4468467484
 C          0.0195686361       -1.2431777301       -0.9997406244
 C         -5.3625655090        2.8904973689        1.6198390641
 C         -5.4091729143        1.8606355431        2.4477845612
 C         -5.1474230502        4.3042215862        2.0397234669
 H         -4.4807340739        0.9998606450       -1.4169906770
 H         -6.7770420874        0.6556017817       -1.7597537983
 H         -7.3850988516       -0.7764551947       -2.6242046027
 H         -5.7651164177       -0.1425677375       -3.0006232754
 H         -5.1488160178       -3.3790300078        2.6113630278
 H         -5.8794261004       -4.5847876434        1.5247952877
 H         -4.1220186231       -4.3073553587        1.4811743646
 H         -3.1725385555       -2.2148209105        2.0782782050
 H         -1.8799283657       -0.1784567898        1.7603912373
 H         -2.9357195565        2.3942068155       -1.9835242300
 H         -1.4962833873        3.2161515524       -1.3910562198
 H         -1.6680442256        0.2644142528       -2.1841383048
 H         -1.0275948486        1.5725091268       -3.1922643229
 H         -1.3195347985        3.4474245024        0.8433489983
 H          0.7877694269        2.0066807633       -1.4994676180
 H          2.1389151971       -0.5637531553        0.3921054604
 H          2.3612672891        1.0586681675       -0.2772006341
 H          2.9079457262        0.0369665277       -2.5039145138
 H          2.8195569939       -1.5717007504       -1.7691451040
 H          4.6568009929        1.6476081345       -1.7706318262
 H          6.9279856967        1.9279725285       -0.9356498135
 H          8.5889030954        2.0102727967        0.7472873531
 H          9.2408705290        1.4311984590       -0.8131597064
 H         10.0308043762        0.9660119603        0.7132469841
 H          7.2858615969       -4.1208586001        1.3430641115
 H          5.6297380819       -3.4795307411        1.4616748849
 H          6.2831425882       -3.9926885872       -0.1223544350
 H          4.5778467134       -2.3632281360       -0.3276725736
 H         -0.0881831359       -1.6285063211       -2.0160940782
 H         -0.9719557915       -1.1412156357       -0.5541093935
 H          0.5878784377       -1.9625929112       -0.4158657454
 H         -5.4831263139        2.7382652024        0.5553981871
 H         -2.8918552133        1.6732195776        2.5627201032
 H         -5.5776876096        0.8537426948        2.1026768305
 H         -5.3077580029        1.9956107029        3.5144572328
 H         -4.9818044324        4.3764188608        3.1120337445
 H         -4.2932210023        4.7305540914        1.5137056936
 H         -6.0197915287        4.9058287346        1.7845015126
 H         -2.0640619785        3.0912288480        2.9792523620
