25
 energy: -42.159240601458 gnorm: 0.007226091052 xtb: 6.6.1 (8d0f1dd)
C            2.74914061824774        1.23513303500747       -0.12173201031582
N            2.13133105415348       -0.06300011190803       -0.12624581426513
C            2.74791214883548       -1.22088889276975       -0.29803666032930
N            1.84962817810308       -2.21094141146461       -0.23660898904891
C            0.60804725591433       -1.67626114831697        0.00006750356094
C            0.78367795410550       -0.29346123584806        0.03990183290406
C           -0.12262230222326        0.81104683183439        0.45768804978285
O            0.23322665501054        1.58176100150057        1.31959287162876
N           -1.35904442388758        0.90902776775594       -0.13990992747957
C           -2.24637355426775        1.93922770411443        0.38555982996436
C           -1.76530377176727        0.19184256728121       -1.25050453048923
O           -2.85113264387243        0.28212596876297       -1.73872192191145
N           -0.49853909990352       -2.44463702754317       -0.02640563829962
C           -1.46890056879803       -2.47455540501706        0.77997964289382
H            2.58948713048629        1.71359732244893        0.84720441042397
H            3.81518587025498        1.13465820991835       -0.31339227843584
H            2.30067370610299        1.86949818277729       -0.88826928288182
H            3.80059471337748       -1.35032574994798       -0.45991605211383
H           -1.75191641810362        2.90917144390991        0.32636499226100
H           -3.15480092353751        1.94297190754526       -0.21234801569724
H           -2.48221290386857        1.73486778828574        1.42847891084573
H           -1.50170077755509       -1.92631530732186        1.71527893862174
H           -2.30586522763405       -3.10435669858206        0.52091407444089
H           -0.98339730215262       -0.47211651501374       -1.64891993988369
H            2.04333614707805       -3.19983168580884       -0.32884837827614
