72
 energy: 104.266186951343 xtb: 6.6.1 (8d0f1dd)
N           -3.38040393947682        3.00259408992910        2.93306991252239
C           -2.66755996691235        2.46000430285817        2.04209496529375
C           -2.93794269161063        2.58587460560885        0.54979390216455
C           -3.77140401476651        0.46506892674128        0.33965440053674
C           -4.47004739271471       -0.27268600755875       -0.66600737011138
C           -4.98351284713443       -1.54093616744919       -0.45482045358765
O           -5.58292562389259       -2.26345220637851       -1.42213295257094
C           -5.69661966579208       -1.62517567172788       -2.68440850297353
C           -4.82243077813194       -2.12455776321079        0.80595464157325
O           -5.34484127364277       -3.39824118792934        0.82490861676278
C           -5.20214806436914       -4.10493615119505        1.99108704633396
C           -4.19432969727395       -1.38016342495839        1.83474357855993
C           -3.72247831716025       -0.07184535732475        1.65023063789283
C           -1.71558803226702        2.49013474699729       -0.29019327164288
C           -1.17816160796598        1.10375018735317       -0.57831080597128
C            0.28467692795059        1.08096031052280       -0.34336412224510
N            0.98596537063937       -0.11152694196128       -0.27964610189267
C            2.41982456518793       -0.09830718231671       -0.19429932623166
C            3.22199625728820       -0.24674790145427       -1.52601607453849
C            4.67765150529110       -0.28321797106733       -1.17320762873615
C            5.47394109141367        0.84504672961599       -1.28637811662296
C            6.78828355673305        0.82816597171301       -0.85452483964242
C            7.28645455709928       -0.31339935381873       -0.26213853182276
O            8.57019286800897       -0.43204003096338        0.19307452001166
C            9.41258994282555        0.68845649772680        0.08752449073117
C            6.48545539198930       -1.47060865992431       -0.12792386583555
O            7.13829459834590       -2.54267746565024        0.40782689770368
C            6.43416829220673       -3.74732436862912        0.52970581582173
C            5.18334383374550       -1.45188568925267       -0.59202900659348
C            0.39381911610624       -1.35500720203103       -0.71726963523740
C           -3.80956718979117        3.76419354819519        0.22943188537865
C           -5.32927402875762        3.35088896718300        0.61827818663743
C           -3.33431038592638        5.02193873328280        0.98636526892006
H           -4.64923963069072        0.17234712952063       -1.64227106615791
H           -6.35830670350961       -0.74192353591990       -2.70700884445659
H           -6.11235854842156       -2.40702534591682       -3.28141055803769
H           -4.74399395141827       -1.33228221749864       -3.15178289096794
H           -5.75182007192763       -3.58358671995924        2.75059769364839
H           -5.69135552577801       -5.07544172801463        1.82059426881748
H           -4.11665856034607       -4.21674043461651        2.21486044935806
H           -4.01004513936366       -1.87208125859514        2.79601776557410
H           -3.29526164133896        0.38569343899816        2.58879302510492
H           -1.89772766396367        3.04148492717810       -1.14837776020150
H           -0.98692207681735        3.03098238590054        0.29398227359759
H           -2.07608545270481        0.70577637680418        0.01012017416205
H           -1.46167607694130        0.73769196225538       -1.57323965784086
H           -1.68276315971121        1.99570782951161        2.28652450988673
H            0.83063021447609        1.97894308685066       -0.02334198692264
H            2.72371499632695       -0.90465805568630        0.46568585269826
H            2.69904612379556        0.82877642110896        0.30742735608782
H            3.01228979396952        0.59451738689457       -2.18831628963341
H            2.93908380486076       -1.19306405850728       -2.01456233217920
H            5.07427625646190        1.77575983343865       -1.66651914262893
H            7.39527086631677        1.71558997301396       -0.96735512489574
H            9.01870352213167        1.53065822791139        0.65007035422202
H            9.54145408851061        1.00801316382948       -0.94985857972729
H           10.39024941975116        0.36787056353279        0.46424910768534
H            7.13242732109782       -4.47617549846777        0.94202981488841
H            5.57709235445261       -3.63996553223557        1.18867835667136
H            6.06693952320779       -4.11132986928448       -0.43401138480441
H            4.54791443808905       -2.32269828480340       -0.49089562147058
H            0.34872774771846       -1.40004724240703       -1.80865788698111
H           -0.62093389585197       -1.43210462970419       -0.32951605128456
H            0.97480563127896       -2.20081706430689       -0.34321586800512
H           -3.65343401092212        3.97272685590641       -0.83800219449778
H           -5.41202144807703        3.26577433088905        1.72692406874257
H           -5.76856419446345        2.50162479835298        0.07722126113886
H           -5.97633719421412        4.13582084209441        0.32575490151378
H           -3.58588931409003        4.89060524090579        1.97543180224684
H           -2.28189551440920        5.16791883773271        0.81768465524396
H           -3.91140970500634        5.83937323894597        0.59635755383258
H           -3.01255313957143        3.04749013385235        3.88148262018288
