72
 energy: 85.602916368272 xtb: 6.6.1 (8d0f1dd)
N           -3.44224105768491        2.99949413584408        2.93788111233546
C           -2.66766414841834        2.49247675396541        2.04101563645654
C           -2.83124075277032        2.75585163072770        0.59086974973665
C           -3.63337521016394        0.31450749942187        0.25633775685444
C           -4.44978741008352       -0.37045444978373       -0.70155725093120
C           -5.01541795839655       -1.60343392970676       -0.46135317432698
O           -5.62052708969853       -2.33875664397402       -1.41333031958593
C           -5.75488758358794       -1.72269283008593       -2.68234314182480
C           -4.85020673419124       -2.17702740089721        0.80510274348865
O           -5.36269608268425       -3.45013863537580        0.84341549168652
C           -5.23568831488925       -4.13081550735758        2.03151004342721
C           -4.23616012547513       -1.40455002127443        1.81687323374152
C           -3.71271584173145       -0.12389803659635        1.60127430077298
C           -1.70118567605205        2.53518701084462       -0.35698625113108
C           -1.03914337097323        1.21468135533944       -0.61860868511684
C            0.29520861125559        1.12913413608365       -0.30251197402060
N            0.99036446439674       -0.07275206976940       -0.26022747240071
C            2.42502798485661       -0.09615770255703       -0.16669016982303
C            3.22232577777443       -0.22575009353161       -1.50528094943359
C            4.68444854862243       -0.27118528334933       -1.17514852399570
C            5.48172551980412        0.85531002940504       -1.27982469085752
C            6.80415951359194        0.82794392945348       -0.86849989077967
C            7.30539282533995       -0.32022924081573       -0.29278089209659
O            8.59119761929870       -0.44770468869552        0.15674855696368
C            9.43867628078219        0.66990423171076        0.06391247115774
C            6.50100367267537       -1.47630516700994       -0.16613648051531
O            7.15320958011875       -2.55592763982285        0.35423009570520
C            6.44462099179438       -3.75901244394136        0.46994444617679
C            5.19567041170755       -1.44921125947191       -0.61946029880003
C            0.37725467795132       -1.30543862030390       -0.70762633588138
C           -3.76022644719930        3.85524871512657        0.23994406266143
C           -5.30941637469747        3.41614959779964        0.55603105004426
C           -3.33086509074462        5.08482320447617        1.05697474423688
H           -4.65946117423593        0.08998615257818       -1.66815592831564
H           -6.41735558224254       -0.84187866459146       -2.70586923561660
H           -6.18683578637230       -2.52132652308094       -3.24538712324060
H           -4.81198057621554       -1.43679444919791       -3.17562821892963
H           -5.80599137089021       -3.58345971310667        2.76649783164648
H           -5.70783133916134       -5.11111514012726        1.86477578485787
H           -4.15824541743875       -4.21596278153360        2.28203264113599
H           -4.06683758770405       -1.84475586185691        2.81069390594648
H           -3.31550934956884        0.36998001219259        2.55967770161286
H           -1.96814818611415        3.01077195170283       -1.24634388312650
H           -0.97203868910062        3.14147356266759        0.14170268246081
H           -2.58913609130562        0.82454545527809       -0.02615591057545
H           -1.37802047706817        0.69010914584349       -1.50166497802718
H           -1.71224153715254        2.01064377205463        2.33779061124031
H            0.83889575221643        2.00030763081197        0.08979071757639
H            2.72570108548425       -0.92541071117075        0.46373180093917
H            2.71179027622525        0.81718624183042        0.35316766426803
H            3.01147402728735        0.62113911811735       -2.16354515552671
H            2.94205733408979       -1.15964120623399       -2.02056567528243
H            5.07323596963841        1.79584343435781       -1.61837567921096
H            7.41226517514644        1.71512279516018       -0.97566213820499
H            9.05611077049504        1.50779393780770        0.64112801482035
H            9.56979118012509        1.00007500081502       -0.96951927398777
H           10.41628233075071        0.33929331760418        0.43326377031137
H            7.14452908993397       -4.49252996278967        0.86936857504604
H            5.59560700587337       -3.65600532145197        1.14067244685622
H            6.07068643476556       -4.11251661030199       -0.49434302619626
H            4.55819436295020       -2.31920372789423       -0.52437776979423
H            0.31187795216183       -1.33524662361948       -1.79715729313794
H           -0.62810771454823       -1.38632150211110       -0.29261521641980
H            0.96417990550838       -2.15700834610652       -0.35787226506477
H           -3.57356850167456        4.08687133061779       -0.81534621617876
H           -5.46762451046321        3.28886752481790        1.65142602777641
H           -5.67821241937572        2.58104434886139       -0.03384559125222
H           -5.97226713960637        4.18389657904607        0.23542779978523
H           -3.58557881698749        4.87523932735007        2.03870482186700
H           -2.27679047707276        5.25061247863448        0.91293116096778
H           -3.92002369078251        5.89629595119845        0.69434891229074
H           -3.09075985323243        3.04571202893260        3.89576503139786
