72
 energy: 9.393128892660 xtb: 6.6.1 (8d0f1dd)
N           -1.83561047617829        2.86692003497329        2.44384318327735
C           -1.76574675611480        2.17726954190776        1.40986601723195
C           -2.89162027181818        2.09978389679791        0.43104615123908
C           -3.52212936266748        0.71505644133911        0.49724655632804
C           -4.34809177164979        0.18575791371632       -0.49016161840868
C           -4.84310011077617       -1.09797194666764       -0.45530376282133
O           -5.67867533308624       -1.63453337537789       -1.39326066746393
C           -6.14292003709820       -0.77059475704529       -2.39387169116696
C           -4.47921532586568       -1.95449786405703        0.57080094988000
O           -5.05299607000164       -3.18436643832295        0.50123527591002
C           -4.71840499616359       -4.09519634772593        1.49062773808633
C           -3.57296771713506       -1.47927242019859        1.49043322604397
C           -3.09879181093667       -0.17704412070130        1.45490722882610
C           -2.11817730662699        2.29104900920239       -0.89941261901901
C           -1.24674609910412        1.14849966728763       -1.46385916621219
C            0.09965168479105        1.08426758006510       -0.84653252055207
N            0.72089666796213       -0.09658649777070       -0.50526126742711
C            2.10006164220947       -0.07283061900431       -0.16770151496698
C            3.01322619683252       -0.51971235243697       -1.33503593968451
C            4.44040375763099       -0.42357824312857       -0.91579150312037
C            5.17617949426976        0.73444460431086       -1.09869337137584
C            6.47675834442953        0.83325158915165       -0.62863103088693
C            7.06610964964982       -0.23049148284271        0.03237882198197
O            8.34900150040495       -0.24716605000845        0.50378315748099
C            9.13903501310261        0.89689807107263        0.29456420446928
C            6.32640215800861       -1.41498070346637        0.24145718140552
O            7.00173597073336       -2.41464721829443        0.88792169011079
C            6.34539767880881       -3.63678126829875        1.08451811321720
C            5.02893767639678       -1.49242385876961       -0.23653092560928
C            0.07653120666880       -1.36334936143190       -0.65542023916623
C           -3.94690388181782        3.20971009331548        0.45540349506542
C           -4.74710674560754        2.90448817918466        1.71720988396092
C           -3.40159243852282        4.64100276566353        0.56475867814108
H           -4.51299044663345        0.79485601283922       -1.35945670223251
H           -6.61345114382254        0.13553318403585       -1.94791216626166
H           -6.92180209748682       -1.29303556566722       -2.96865605659685
H           -5.32621038199348       -0.40154656529100       -3.04322296410169
H           -4.96004269087499       -3.67709672672821        2.46338696772108
H           -5.34280603493909       -4.97466765231762        1.33298975821044
H           -3.65190152654812       -4.34944084562410        1.44725093782508
H           -3.15700698072921       -2.15236574547024        2.20968415239498
H           -2.29975360226975        0.13090367044337        2.11466123648475
H           -2.86066250468180        2.55437632882453       -1.65408965198504
H           -1.46167503520935        3.12883692199957       -0.72292842026603
H           -1.72111163934529        0.21090099740326       -1.19775146326210
H           -1.21502073337195        1.29962692865585       -2.55391588709668
H           -0.86069864991171        1.66507717453877        1.03496988837391
H            0.76868363367751        1.92943094527489       -0.85149145553485
H            2.26435673938248       -0.72409528011598        0.69921475210083
H            2.36429161812352        0.94330876857430        0.12237578887294
H            2.80236566414861        0.13000901496286       -2.18104654300523
H            2.75644587115011       -1.54472797323677       -1.61745316760834
H            4.75041105025560        1.58962813258230       -1.59260165036962
H            7.01702731834106        1.75079470864100       -0.80336209694122
H            8.68918545822219        1.76998013552447        0.77736723755334
H            9.23940824108750        1.12211732802531       -0.77533444507509
H           10.11549541407336        0.67097471771358        0.72722299604447
H            7.05191772467225       -4.29773244608399        1.59330186519461
H            5.44315091648255       -3.51540316379930        1.68438462836252
H            6.03640089670985       -4.09310523001815        0.13200553475796
H            4.44525341152408       -2.38656211505356       -0.08575253355675
H           -0.06359326144031       -1.63113595050565       -1.71049899488367
H           -0.89351866337826       -1.32690231033844       -0.17288631242373
H            0.64310855601060       -2.13811144235193       -0.15296018348634
H           -4.51234379096173        3.11430384333646       -0.46848052723158
H           -3.98023757214918        2.92538900946199        2.49582170427137
H           -5.18325165713493        1.92323945559694        1.57089979813921
H           -5.51676528540277        3.62031798468338        1.94423934427111
H           -2.72655121558125        4.72227555716630        1.38134824261253
H           -2.82530003498417        4.85395086078743       -0.30219114827443
H           -4.18864820331809        5.36568999216108        0.61777569641492
H           -1.05473386757193        2.85958282517249        3.06959488130354
