72
 energy: 16.566630006818 xtb: 6.6.1 (8d0f1dd)
N           -3.23034499912322        2.80155882036168        2.73751980634058
C           -2.42174688928160        2.53172518664534        1.74332469226053
C           -2.49744238180015        3.17232042831303        0.49316089803927
C           -3.93408830711548        0.06509550054644        0.15781654866225
C           -4.63803933271353       -0.67723201798442       -0.78940351980209
C           -5.13111473734848       -1.93331812220662       -0.50317734564289
O           -5.76951224842706       -2.72350677613538       -1.39104919160038
C           -6.03841575871464       -2.21952850343801       -2.67402762656015
C           -4.95448298669363       -2.47571423132547        0.78030151569469
O           -5.45211448271406       -3.74423279684535        0.91646642597264
C           -5.32938501951091       -4.36408383732232        2.15812152730772
C           -4.33239496017620       -1.68831281316351        1.73853332872803
C           -3.80570911469001       -0.43193374127810        1.44318475989263
C           -1.47597199906127        2.89377169502136       -0.56847289639426
C           -0.86712532556261        1.53457723165855       -0.53826455780617
C            0.41299535121085        1.31173326873293       -0.21850085917106
N            0.99453865723721        0.07086520227927       -0.16234075762260
C            2.41533949243801       -0.05892905318630        0.00970602454267
C            3.21305959035965       -0.17765065101396       -1.31390969931843
C            4.68495515577358       -0.23378477674387       -1.04178022688521
C            5.47418578336547        0.89674020822140       -1.10004271008674
C            6.82628194262542        0.84428503466925       -0.79660494013741
C            7.38845767350162       -0.34155973959673       -0.37503057519639
O            8.69568981484535       -0.49891677847542        0.00019251709336
C            9.55519704668178        0.61272984423784       -0.05000237636179
C            6.58629377738158       -1.50329023713388       -0.29237457175404
O            7.24627914281978       -2.61859654813602        0.13352606703057
C            6.52776215687001       -3.81985127502245        0.22300145325498
C            5.25903663700044       -1.44598114194040       -0.66836685075196
C            0.28197062334832       -1.08780019206597       -0.64112019173813
C           -3.48209870798280        4.27569390004198        0.25325422065870
C           -4.97856850622483        3.77919183429028        0.25312350036751
C           -3.27180419105835        5.36596752513621        1.31648552765449
H           -4.79045177160438       -0.25897380997023       -1.77157280091801
H           -6.70852948375815       -1.34836828698195       -2.68771305252676
H           -6.54288191981231       -3.07995019201133       -3.08419125111505
H           -5.14919700593582       -1.97038690345236       -3.27961812668738
H           -5.86408916492792       -3.79867184424082        2.92707992730319
H           -5.77589033252585       -5.35745959376113        2.02955783127832
H           -4.27191560203982       -4.43652080098582        2.43431168161853
H           -4.20746705433150       -2.05144975821217        2.74067819853670
H           -3.36413315175679        0.14140328319049        2.26881529410006
H           -1.87299451284474        3.07652732131823       -1.57809851048586
H           -0.70098523338136        3.61105887388899       -0.40065028558642
H           -3.41853583315652        1.00469716892331       -0.13182092767242
H           -1.50346839824488        0.81025376854695       -0.98219237634364
H           -1.53668847901920        1.95349729547106        1.98132209860399
H            1.08338413917939        2.12924265134016        0.07254224240128
H            2.63392429650373       -0.93785849471582        0.62440375046036
H            2.77540752935740        0.81327076615737        0.54745771472155
H            2.97914425346691        0.68425742088825       -1.93899855725289
H            2.90869977511142       -1.07502091350736       -1.85903269486722
H            5.04409593851169        1.84258953048493       -1.38210273335128
H            7.41852496328062        1.74255090217380       -0.85933184331706
H            9.23399992279410        1.42466553077740        0.60968598637948
H            9.65165262217116        0.99245923753189       -1.07285129530455
H           10.53053531513083        0.24055854628769        0.25883402195966
H            7.23759387775888       -4.56831093189354        0.56879308416643
H            5.70622437250032       -3.75903259258967        0.93670685773232
H            6.12322035851300       -4.11574771953016       -0.74764388566339
H            4.62323284974881       -2.31861116614994       -0.61971705666282
H            0.10992817219265       -1.01800672719292       -1.71713964894240
H           -0.67410878639220       -1.16821044131061       -0.11784976514172
H            0.87415409553891       -1.97561765137697       -0.44123894807800
H           -3.19869090587963        4.69168775465850       -0.70684437061849
H           -5.20812508950962        3.26006969407247        1.17844036023027
H           -5.18037643074456        3.10736997857186       -0.57636582914508
H           -5.70602169616818        4.57882482112454        0.19539606515898
H           -3.48426920605281        4.92666834820768        2.28939806930436
H           -2.24908014954893        5.71374665176780        1.28836788495189
H           -3.95058529536443        6.17284946393477        1.11897387709744
H           -2.84633253982973        2.52870705346823        3.64340007512299
