72
 energy: 21.551514719670 xtb: 6.6.1 (8d0f1dd)
N           -1.99022565010846        2.89506639407806        2.52503952514151
C           -1.86797465839731        2.19322733552356        1.50945889101570
C           -2.94942522362725        2.11536161036716        0.48902619664082
C           -3.60270351554580        0.73345411279535        0.54045097002146
C           -4.35741809798519        0.16014605141693       -0.49267670191405
C           -4.83574520678759       -1.12920339097554       -0.43998292250036
O           -5.60926367665121       -1.69083706700391       -1.40807539857410
C           -6.03853353723323       -0.83999730260581       -2.43744737329609
C           -4.51911224414819       -1.95332536992873        0.62577933090822
O           -5.08029137666863       -3.18658479556019        0.55068799516448
C           -4.75402787517436       -4.09406635833396        1.53668442842455
C           -3.63949865120260       -1.45508310910014        1.55529309313907
C           -3.19093182497863       -0.14477038634157        1.51786049306771
C           -2.06777467394908        2.29312001992870       -0.77619507439701
C           -1.23848356415081        1.12029854049125       -1.33004202620116
C            0.14816262299518        1.05611736685525       -0.81159373231686
N            0.76715708635379       -0.12161814343823       -0.48050782802587
C            2.14782839042001       -0.08391666391033       -0.17140956441668
C            3.04490562514736       -0.50119965598519       -1.36050353263834
C            4.47193642255438       -0.41460697253633       -0.94772851992472
C            5.21439582771959        0.74109527999694       -1.12230500611433
C            6.51188074210259        0.83154308300741       -0.64570648352541
C            7.08971215198068       -0.23881504446595        0.01412584618170
O            8.37339152763689       -0.26311284917862        0.48571008751215
C            9.16467802892318        0.88100134849304        0.28034829296059
C            6.34417845190483       -1.42021550683400        0.21715048757149
O            7.01668576986017       -2.42646970842669        0.85843276380957
C            6.35454263267338       -3.64593737971249        1.04663246755268
C            5.04893073957536       -1.49029974656887       -0.26855545788716
C            0.13926660227122       -1.38667351066058       -0.67893527458922
C           -3.96366893040046        3.26005961842915        0.39932203525000
C           -4.84220891890318        2.94820342283029        1.60909417806417
C           -3.39986249158041        4.68236758920602        0.56788431260043
H           -4.47457890755370        0.73433975574435       -1.38653655117580
H           -6.53812519029102        0.07051418880564       -2.03204246070907
H           -6.79071735174507       -1.37445207603065       -3.03183834262715
H           -5.19505950158198       -0.47442138773934       -3.05349645537329
H           -5.01487363534712       -3.66808414698044        2.49559268123669
H           -5.37800766964192       -4.97556641917135        1.38032287305291
H           -3.68215851538398       -4.33552351404922        1.50330094494687
H           -3.22001531928556       -2.12628354223565        2.27199512789336
H           -2.39361706852287        0.17146517701290        2.17522798886453
H           -2.74812825701366        2.61526109836472       -1.56494104834745
H           -1.38176782678772        3.08526831128926       -0.52435426649349
H           -1.69335470217981        0.21306284143907       -0.92886166900903
H           -1.29331111281991        1.22671463021729       -2.42319978239765
H           -0.94341684311486        1.68512071321504        1.18543625933436
H            0.81509157245800        1.89889977472609       -0.76555745301330
H            2.32560881178584       -0.74452499572220        0.68308113027213
H            2.40430536578813        0.93018910370300        0.13268805241077
H            2.82424243446212        0.17027496880493       -2.18529876173748
H            2.78215540002308       -1.52063708892476       -1.66211284851326
H            4.79950205792614        1.60553516916714       -1.60842610242868
H            7.05700354254835        1.74732275218261       -0.81558142796897
H            8.71107485272905        1.75131113301616        0.76299853907891
H            9.26141100505900        1.11235272846078       -0.78879445510407
H           10.14291512658216        0.65232429510407        0.70905312596023
H            7.05468675695406       -4.31685797795690        1.55257254014270
H            5.44974456443202       -3.52245127880933        1.64008777548888
H            6.04136463553097       -4.09465274185469        0.09120355495962
H            4.45800950715033       -2.38050323049169       -0.12160904561640
H            0.03020169920398       -1.63015252797426       -1.74443338123798
H           -0.84110276102266       -1.36377475222637       -0.22019719671658
H            0.69381283639285       -2.16842672905004       -0.17653767430617
H           -4.41778654335694        3.16604711185385       -0.58418877009654
H           -4.11010067721802        2.94929001894549        2.42183130340135
H           -5.29083738462915        1.97958047267746        1.41708947427376
H           -5.59505808626736        3.67518686470126        1.82259615025854
H           -2.81466596797114        4.74913686481753        1.44068692074947
H           -2.71112480679812        4.85864904524768       -0.21742652586515
H           -4.15793856870552        5.42656670409945        0.49522606499540
H           -1.24802460521665        2.89070037850098        3.19048611737254
