72
 energy: -5.618685454586 xtb: 6.6.1 (8d0f1dd)
N           -1.57993357787983        2.81252160902400        2.29212504403789
C           -1.60119559342745        2.15560805288708        1.22449415776903
C           -2.78156835767394        2.07229377417741        0.29952056318964
C           -3.37074199979093        0.67147455176730        0.37705080182790
C           -4.32237475198349        0.23811971095758       -0.54297444491618
C           -4.85229826229836       -1.03632187027046       -0.50763138861184
O           -5.79290735031466       -1.53028781485816       -1.37041937396102
C           -6.32934514572872       -0.65259307670836       -2.32140809613565
C           -4.41795592381981       -1.94572737391296        0.46925223980561
O           -5.00778640254804       -3.17446714053504        0.42366098648568
C           -4.67118658772570       -4.09666717527148        1.42257176259163
C           -3.46410152317601       -1.52263984170961        1.37330460414826
C           -2.94483743343706       -0.23468773907556        1.32541286718112
C           -2.18442124846023        2.29542891468208       -1.11398702193099
C           -1.25957581719712        1.18185343781413       -1.64978150953873
C            0.02198197716523        1.12622924996872       -0.89883078651980
N            0.64874030075005       -0.05613001313657       -0.54929873720351
C            2.02260081151552       -0.04826946568155       -0.16213856178670
C            2.95647837444893       -0.54115573734599       -1.29311085675550
C            4.38292235592972       -0.43407977526639       -0.85988213312976
C            5.10570669699194        0.72851909845223       -1.05753556966229
C            6.41294978954647        0.83872202279265       -0.60538483187913
C            7.01945172665939       -0.21501290129012        0.05581278489131
O            8.29988506891902       -0.22042402268311        0.52673478419165
C            9.09084133831081        0.92120393494607        0.31476391380210
C            6.28947404476845       -1.40484881102217        0.27436312224227
O            6.97003771061231       -2.39249972257585        0.92647912755994
C            6.32634714617907       -3.62068601134167        1.13922134115627
C            4.98732508944617       -1.49436623869669       -0.18295773757668
C           -0.02365757377567       -1.32053234385715       -0.62485624951771
C           -3.89922710217830        3.11124640604321        0.55070682235574
C           -4.56877751376174        2.81735349162653        1.88808641351085
C           -3.40075182726035        4.55428919651477        0.55731565259410
H           -4.61329328473672        0.91431445781803       -1.32701799624092
H           -6.77122356296221        0.23311304371577       -1.83105363788789
H           -7.12286257202424       -1.19358555759269       -2.84923375793438
H           -5.56979189734381       -0.29581598410474       -3.03504269810909
H           -4.89050412657445       -3.69981323549802        2.41788744490523
H           -5.29591322333809       -4.97133020649749        1.24789434629128
H           -3.61442880683486       -4.38018934132180        1.37049439048132
H           -3.08069893082747       -2.19795673882379        2.11709874420106
H           -2.17271477979776        0.05640029547018        2.02309708314564
H           -3.00581079439700        2.43779164991990       -1.81775624053379
H           -1.60082873146245        3.20997307882554       -1.07478131537510
H           -1.77209536587610        0.22819901130230       -1.57732559195731
H           -1.07255445193434        1.38297472298657       -2.71724331757664
H           -0.72673826203570        1.64690192041942        0.75932106914013
H            0.67286304365060        1.98476260915306       -0.96159067202778
H            2.15765908696037       -0.68399939002835        0.72239772638776
H            2.30766655050381        0.96956644958053        0.10861598059001
H            2.77120461401142        0.07618696802282       -2.17240030320976
H            2.70497982747473       -1.57383249317795       -1.54168970638269
H            4.65963605557635        1.56687693848613       -1.56772941877098
H            6.94893104026678        1.75673252323244       -0.78791261145298
H            8.65832985692394        1.80028444593293        0.80423956985261
H            9.20803152022158        1.13664901195488       -0.75400908272196
H           10.06187765912756        0.69261020815835        0.75377212096905
H            7.05167030597380       -4.25810429787036        1.64649393499096
H            5.43673125573235       -3.50725365075637        1.76479896952459
H            6.02576598413746       -4.09161877845289        0.19441649848389
H            4.41739145669150       -2.39677319092916       -0.02719114526366
H           -0.19931648122126       -1.62948956863514       -1.66189583406775
H           -0.98432850552188       -1.26380970787609       -0.11413470261111
H            0.57131810397766       -2.08000165847077       -0.12459329875776
H           -4.63270486387455        3.00766236412264       -0.25497779928132
H           -3.79594850951905        2.89985465456233        2.64981354164461
H           -4.97002147182266        1.81118019648759        1.85327320835311
H           -5.37704848660529        3.51055047938880        2.10329611291400
H           -2.61952714075544        4.68556656757999        1.29293263803487
H           -3.00130102181949        4.82603668737350       -0.40744510712086
H           -4.21657828579651        5.23791497665209        0.78369325857416
H           -0.72449776972265        2.79892708828097        2.83304435085548
