72
 energy: 53.840814297325 xtb: 6.6.1 (8d0f1dd)
N           -3.03857645864365        2.99515371977874        2.86881446967527
C           -2.51281320033272        2.34269447554744        1.96029907805120
C           -3.05112577877285        2.28874232995011        0.52054239814483
C           -3.78959028278520        0.69079668631088        0.44741023917257
C           -4.43443339818676       -0.06758406342388       -0.59480244108474
C           -4.91593237256361       -1.36171135317420       -0.43492071929306
O           -5.49857363056837       -2.04469474921956       -1.43330580162495
C           -5.58524400637403       -1.33799854836228       -2.65908368585874
C           -4.74683863577153       -2.00652236608962        0.79158128749000
O           -5.26448594845899       -3.27557559067105        0.75563562374668
C           -5.06230006518452       -4.07746438777695        1.84856446127599
C           -4.05842048861136       -1.34770478141990        1.81982453871783
C           -3.64945181985569       -0.01500522715905        1.69396388065644
C           -1.74572225671710        2.36283744835525       -0.20540777182795
C           -1.19124610026484        1.01700537947579       -0.60995917027761
C            0.29560091165632        1.02915702006830       -0.54034342266755
N            0.97816835492712       -0.16948730334560       -0.37755602633682
C            2.38665458505616       -0.10108701976640       -0.21606298366949
C            3.20251321434286       -0.32837237400768       -1.50958078918928
C            4.63890471027316       -0.32783346630109       -1.12906968365560
C            5.42184206738039        0.80915257266189       -1.25945095708467
C            6.71931203497316        0.82793126648539       -0.78993706621112
C            7.22648748554533       -0.29127658768848       -0.16190094621396
O            8.50966761160650       -0.37837564958023        0.30535805795823
C            9.33069396802342        0.75284197325949        0.15961058320474
C            6.44111819570332       -1.45345292366577       -0.00392599005468
O            7.09821378965119       -2.50377399590905        0.57629137038404
C            6.40580381635704       -3.71142186946809        0.71721302299072
C            5.14700649921095       -1.46492934802436       -0.49201279443486
C            0.42773364142686       -1.43666782388864       -0.79191263575109
C           -3.89500280855650        3.54833357101917        0.22284274895249
C           -5.26342530128969        3.19075320788344        0.89346942872720
C           -3.34257871994653        4.88508696232065        0.78385278515157
H           -4.57268182861852        0.38131918043481       -1.56627897217592
H           -6.24002709189220       -0.44886682671806       -2.60706839839962
H           -6.05045995923405       -2.05221931403161       -3.30839917977790
H           -4.61325851952236       -1.03479558488257       -3.07924975698512
H           -5.51961269104771       -3.59942510687250        2.68366553860788
H           -5.63138373044517       -4.99496310285495        1.67255096618104
H           -3.96896328612259       -4.24888966888481        1.97573162112363
H           -3.77987207017595       -1.94389761791482        2.68038003523794
H           -3.07959345301413        0.37297707213821        2.54365410462302
H           -1.98149428617567        2.93018199429960       -1.09710461830822
H           -1.02738451890025        2.88188894331333        0.44027662060118
H           -1.67635036358664        0.35898100837245        0.10692033980555
H           -1.62833623392395        0.81206612291535       -1.59421852353874
H           -1.50092586084330        1.88313850572105        2.04479933009563
H            0.84410695841998        1.93416678460359       -0.27661576523690
H            2.65496340697629       -0.85231975425472        0.52241975752929
H            2.65192173886001        0.86500909709736        0.21981454775270
H            2.97828259700644        0.47803929964619       -2.20138646088581
H            2.91209335062116       -1.30290638010388       -1.93613882580252
H            5.04501121174739        1.72294543807001       -1.69494219121533
H            7.30905606813680        1.72342341781926       -0.92292731970324
H            8.90458986325883        1.60609270150300        0.68291248935407
H            9.44531767372171        1.03985199022543       -0.89101070026278
H           10.31002678269336        0.46761468595495        0.55659529527792
H            7.09852026472125       -4.42565443258607        1.16832574484240
H            5.52426662392856       -3.59301616245670        1.34023439403706
H            6.05832954737716       -4.10567880758600       -0.24570644024398
H            4.51910617282099       -2.33763493481247       -0.37296618692149
H            0.44273442773097       -1.59346986357074       -1.88194807728250
H           -0.60666806540908       -1.49611034245436       -0.46338728546268
H            0.97875600972553       -2.25671228848130       -0.32583758289597
H           -3.88505024937116        3.63681228947445       -0.88026777908982
H           -5.06947612565349        3.16331063568122        1.97725839701714
H           -5.77357388195299        2.30668959428289        0.48397334207829
H           -5.92288807517459        3.99397772271274        0.75520194233250
H           -3.44000255678065        4.89680225003745        1.80387008600312
H           -2.30289829377624        4.96144649561253        0.50409319150946
H           -3.90616527658708        5.69331270915382        0.32471991031671
H           -2.56783683077576        3.03437727553247        3.75486941064952
