72
 energy: 46.668228654582 xtb: 6.6.1 (8d0f1dd)
N           -2.87855365497164        2.99079345486122        2.83151765449440
C           -2.42077225695413        2.31253241801756        1.90829261733349
C           -3.05544206564733        2.23711487214784        0.52533176684683
C           -3.77918904341570        0.72232192465217        0.48119357941913
C           -4.42370028511466       -0.01606405298335       -0.57257673476985
C           -4.89851813825323       -1.31088874638000       -0.42960905933069
O           -5.47971900708581       -1.98256323589129       -1.43479203958489
C           -5.61584643913577       -1.24901893629727       -2.63579294436303
C           -4.72005684989088       -1.97690771189261        0.78433315268123
O           -5.23294911492331       -3.24512545503102        0.73056438340038
C           -5.00709328959746       -4.07746883861373        1.79644735727820
C           -3.99930371768441       -1.35184990219923        1.79666343900798
C           -3.59807777752032       -0.01884229867690        1.68635258993111
C           -1.77669998802052        2.33444283119357       -0.25342604190528
C           -1.19554816349884        0.99912646061496       -0.66932634459587
C            0.29005883177553        1.01729469249461       -0.59591521826594
N            0.96214316337124       -0.17300614983250       -0.39433777971433
C            2.36256192409682       -0.10067602595550       -0.21010464710363
C            3.18492121051710       -0.35906596280414       -1.49104228956179
C            4.61764408528846       -0.34362342096896       -1.10440401273748
C            5.39428053482897        0.79655187234311       -1.24092478897112
C            6.68904317159202        0.82804477290810       -0.76443001729213
C            7.20503097379978       -0.28292338109406       -0.12798511940472
O            8.48812254731964       -0.35895244548039        0.34154364312832
C            9.30261786082808        0.77554118860458        0.18339491746590
C            6.42574558102213       -1.44779643117096        0.03810687631897
O            7.08483385238929       -2.49049967771154        0.63134664344349
C            6.39688031908529       -3.69975992858946        0.77945073830278
C            5.13294983689416       -1.46952066879516       -0.45428364471103
C            0.40893444508766       -1.43986733088130       -0.78914033096095
C           -3.91542474777882        3.49023124321597        0.22593546973750
C           -5.21516261895192        3.14159722351465        1.00054204055414
C           -3.35094066613716        4.84995116725436        0.71518745603637
H           -4.55512481637683        0.44906379267962       -1.53515634295782
H           -6.26117534260870       -0.35622021717214       -2.53104575731722
H           -6.12608124238364       -1.93411538737043       -3.28613805934573
H           -4.65420969399670       -0.93723250737656       -3.07442197165989
H           -5.42968979311008       -3.61089521168563        2.65600169778733
H           -5.59101041999027       -4.98592275408383        1.62179391231109
H           -3.91416206932917       -4.26108556030265        1.89097513019591
H           -3.68317760613369       -1.97194400725212        2.62145677609677
H           -2.97465171540639        0.35266727327362        2.49741476645442
H           -2.07055894663975        2.88040660206385       -1.14841356453008
H           -1.05783696558558        2.89012687639811        0.35502658691936
H           -1.58914499262100        0.24638559933620        0.06297663989667
H           -1.60398742102561        0.85100794805161       -1.67629162745842
H           -1.41130475679652        1.84838367928954        1.92294589405890
H            0.84349181348977        1.92204476471539       -0.35600707237668
H            2.61461271090706       -0.83531908918708        0.55061653990179
H            2.62256545858266        0.87673799165801        0.20187994617476
H            2.95626476444646        0.42828734858821       -2.20164321964182
H            2.89626981498807       -1.34234787032071       -1.89653521301554
H            5.01764331409673        1.70407244664579       -1.68621549180790
H            7.27109464272198        1.72721818300543       -0.90424481218746
H            8.86759032472183        1.63180646221774        0.69606224903834
H            9.41185956254420        1.05193483626340       -0.87142994892156
H           10.28238292687565        0.50206827933876        0.58652451959496
H            7.08865061534097       -4.40817322410165        1.24246966697715
H            5.50837260857246       -3.57880430239830        1.39218260022786
H            6.05591129260236       -4.10372132087765       -0.18313601005032
H            4.50928365739443       -2.34375845334232       -0.32970545286304
H            0.43538743432595       -1.60906006558183       -1.87983939076101
H           -0.62259476971211       -1.49054326603641       -0.45433356509673
H            0.95047852693713       -2.25320859681094       -0.30714792800030
H           -3.94621132992853        3.50993274222352       -0.88464129935411
H           -4.91324982299373        3.11871540382499        2.05527149164437
H           -5.72548021820049        2.24362419201857        0.63197047614409
H           -5.89067156384392        3.94025553911824        0.93438310468649
H           -3.35514433748295        4.88855225587303        1.74058551827404
H           -2.32100866986881        4.91985850169837        0.39045256075151
H           -3.92023283275742        5.64269199627952        0.22949049456621
H           -2.36264870141974        3.01868578838317        3.68808423568088
