72
 energy: 55.801627585015 xtb: 6.6.1 (8d0f1dd)
N           -3.45157891529207        2.96911186242442        2.89193557842559
C           -2.62789516741808        2.49697805658904        1.95582303616864
C           -2.71748669128438        2.91915599161390        0.56593238060269
C           -3.71165402375771        0.20286243740690        0.18687695292798
C           -4.48928739259742       -0.50826996098220       -0.75368535185466
C           -5.05172019699419       -1.73866129365934       -0.48488260653004
O           -5.67487421755369       -2.49508010451873       -1.40709316535499
C           -5.87041069537488       -1.91922715671621       -2.68070065656004
C           -4.89540818003714       -2.29284202986308        0.79108285370613
O           -5.40315687736313       -3.56388138700151        0.87941265226143
C           -5.28931414525058       -4.20266599196019        2.10039573219363
C           -4.28600017814760       -1.48976112198087        1.75818796615075
C           -3.75669638181853       -0.22034006971266        1.50589311805981
C           -1.67204790112827        2.66990943666605       -0.47755671475119
C           -0.99522422815124        1.35762558844120       -0.56618988858071
C            0.30313723399335        1.20551301815539       -0.20710718267530
N            0.98773819561001       -0.01101562799593       -0.19826941762247
C            2.42302335114896       -0.08981908720634       -0.09201923280619
C            3.21820510400096       -0.19545650073785       -1.43060328630437
C            4.68693786726215       -0.24786278683041       -1.13195856440731
C            5.48279527789891        0.87861779271295       -1.21212342551627
C            6.82427794250775        0.83013190608026       -0.87188429928149
C            7.34213711526121       -0.33208662626436       -0.34066117734166
O            8.63530036350874       -0.47519686217620        0.08795784016111
C            9.48934461429054        0.63873433658097        0.01830807694087
C            6.53428586394819       -1.48800928526208       -0.22988279523074
O            7.18677986177718       -2.58345428672309        0.25482775066044
C            6.46814915746320       -3.78261045475270        0.35952968511688
C            5.22024241396381       -1.44637904095979       -0.65316755484279
C            0.34081309473880       -1.21340760357613       -0.67947993913079
C           -3.66215234501086        4.02444306182053        0.25173048955085
C           -5.19979545450694        3.55844429968833        0.42711949598438
C           -3.30540115089804        5.18823690703231        1.18650684206285
H           -4.70512526413011       -0.05565715489655       -1.71649430319199
H           -6.53489589290876       -1.04187479231297       -2.69672631163282
H           -6.34044000364311       -2.74253757503549       -3.17625365004334
H           -4.94968807126098       -1.64930244381381       -3.22581136903821
H           -5.85280661416205       -3.63169600458582        2.83623192919138
H           -5.73441769976489       -5.19833668827849        1.94733781834605
H           -4.23189164287400       -4.23992633049810        2.39032625938714
H           -4.11684276815091       -1.84497086007563        2.76450072727712
H           -3.32185836677896        0.31825251999707        2.39940105566123
H           -1.99431902527794        2.98029170486639       -1.43487509003891
H           -0.95073501653491        3.36658699411495       -0.12779736835053
H           -2.90284827414127        0.93448687247288       -0.09333822972337
H           -1.36546940565413        0.73363376278532       -1.34034178791559
H           -1.72343290477800        2.00622286514100        2.34292054698114
H            0.87319030135920        2.04043868615418        0.21208877149175
H            2.70889515849240       -0.96369167212436        0.50653360744137
H            2.74233473195589        0.80457407544439        0.43690756588242
H            3.00030347961976        0.66501647473517       -2.06596121879008
H            2.93775810174662       -1.10096676384809       -1.98512863622913
H            5.06508405289973        1.82181773238959       -1.52192447621844
H            7.42613670664645        1.72059025615834       -0.97170971174446
H            9.12632121557046        1.46699123264929        0.62550164554056
H            9.61661017132523        0.98982344739129       -1.00855929634960
H           10.46919451517217        0.29393583550806        0.37185133766905
H            7.16868469800049       -4.52598393466457        0.73608864422809
H            5.63285176254512       -3.68779543800364        1.05034377141928
H            6.08030287742527       -4.11477627802904       -0.60616644413211
H            4.58141062012728       -2.31657150959131       -0.57791984433876
H            0.23743437853949       -1.20111508020773       -1.76672752791817
H           -0.64389975931911       -1.29970696441138       -0.21885080761326
H            0.93529603345891       -2.07974956985661       -0.39056925913575
H           -3.42166974108516        4.32436162110721       -0.76847343285456
H           -5.41960117741352        3.28574138415728        1.47432178931883
H           -5.47878237914498        2.76512264585447       -0.25913509840062
H           -5.94214281977151        4.29306874908350        0.15739964164118
H           -3.56195418475944        4.85660846520451        2.15362842213290
H           -2.25891552423859        5.41765056990928        1.09121549615113
H           -3.92854645461072        5.99928372515951        0.89569187631609
H           -3.10021713808671        2.94575874985640        3.85625284481931
