72
 energy: 2.921156956687 xtb: 6.6.1 (8d0f1dd)
N           -3.13116459812154        2.80822282505641        2.61566284800866
C           -2.26974831156029        2.64130326300356        1.66006812786448
C           -2.31610906742629        3.36881522328062        0.46771394028184
C           -4.15529099650919       -0.05197586913435        0.20346809149802
C           -4.77905814863963       -0.80142916771296       -0.78612694610537
C           -5.21385676723828       -2.08751706838421       -0.51831999483029
O           -5.84003353861500       -2.91308597238632       -1.40522030921521
C           -6.13202627133282       -2.42847587970436       -2.68998023769389
C           -5.01799806311872       -2.63441480614472        0.77023837707394
O           -5.48491213118719       -3.90515532013181        0.93534273587592
C           -5.37057915111879       -4.50762332908818        2.19827553581714
C           -4.39329601604540       -1.87583712258028        1.74403117801534
C           -3.96334303018628       -0.58651379888431        1.45788871870668
C           -1.29134666831191        3.11540147113338       -0.59586151823899
C           -0.77304084696989        1.70986437342210       -0.61776658261742
C            0.47723290466426        1.39100119152664       -0.26930592011103
N            1.01354872795744        0.13483527620380       -0.18628696839482
C            2.42662865162144       -0.03521273774764        0.00878106666613
C            3.22734811567691       -0.16910867019192       -1.30448033184847
C            4.69650356853073       -0.23216914327719       -1.00645232275238
C            5.48025537257113        0.90452634374822       -1.05127013596411
C            6.83158742923778        0.85204802650231       -0.73545569982981
C            7.41774950767658       -0.34260091102618       -0.36005233851103
O            8.72856980467462       -0.51496092266685       -0.03210115398407
C            9.58870123803154        0.59418178508553       -0.08309266885875
C            6.62379874792568       -1.51139543299486       -0.30246097394256
O            7.28527913548556       -2.63901416431692        0.07990818311343
C            6.57948688957372       -3.85114799000414        0.14495949127563
C            5.28165877964257       -1.43970724029451       -0.62534979802223
C            0.25188201978894       -0.99802313405675       -0.64424142375700
C           -3.32508167333665        4.45336770504812        0.24234931379767
C           -4.74792299271698        3.88036566008499        0.22548146182498
C           -3.21822428291862        5.52883015584603        1.33085520684357
H           -4.92712056166229       -0.36654422348702       -1.76248001527328
H           -6.79547584685329       -1.55763487865402       -2.65396183107219
H           -6.64054225700325       -3.24644956610682       -3.19869135604441
H           -5.22337614415877       -2.16929244763503       -3.24434629575673
H           -5.92038321492886       -3.95126512437287        2.96514335145499
H           -5.81168392846971       -5.49736354536424        2.08754616181677
H           -4.32453748987069       -4.61192534180664        2.50663615011020
H           -4.24203923555751       -2.27438510814054        2.73509162042341
H           -3.48815237217652       -0.00065587507951        2.22826910728895
H           -1.73287784776871        3.35557068487377       -1.57002732797781
H           -0.45542351278423        3.81241246803686       -0.44983483400936
H           -3.83062872146360        0.95502326042947       -0.00745639415528
H           -1.48790644559725        0.95386140201840       -0.90137568587249
H           -1.44533111042352        1.91817161213557        1.73019362456147
H            1.16360098961012        2.17552720342155        0.02589176437800
H            2.59108851657555       -0.92973363417778        0.61956191533851
H            2.80952682192291        0.82359000451736        0.56590093214087
H            3.00864238914364        0.69404224724380       -1.93554474925665
H            2.90622766540368       -1.07047339894743       -1.82954861252504
H            5.04505265759199        1.84878128350191       -1.34313693734965
H            7.41667499029608        1.75653838892807       -0.78880085205529
H            9.28939225490721        1.37335911920597        0.62623604212666
H            9.64135769631383        1.02139921393628       -1.09025489166991
H           10.56968847804097        0.21244323855764        0.19636216408726
H            7.30845522605870       -4.59370617997327        0.46660261387244
H            5.76363352392012       -3.80862313861387        0.87473552299416
H            6.17828122623207       -4.13990138384844       -0.83255097584780
H            4.66798981962756       -2.32709003609256       -0.59311462558853
H            0.05293804814011       -0.95524406440132       -1.72139935039815
H           -0.70599030562966       -1.03631141532401       -0.12076278460490
H            0.80223006215886       -1.91094974322256       -0.42626636341752
H           -3.12634514674411        4.92449306867842       -0.72862566715465
H           -4.94545599957500        3.38503753228852        1.17106099888671
H           -4.86508517318101        3.16294026578929       -0.58427904047218
H           -5.46868015091752        4.68219821909264        0.08330018318174
H           -3.43131768017108        5.08241072835370        2.29711711439319
H           -2.21766497782540        5.95607305074348        1.35027130853912
H           -3.93313377696585        6.32506041542823        1.13709349905906
H           -2.95092761116610        2.25051191577673        3.44673189189304
