72
 energy: 67.608349227803 xtb: 6.6.1 (8d0f1dd)
N           -3.17476238258680        2.99778504358214        2.90056541601157
C           -2.58462557698153        2.37688383824168        2.00390006316328
C           -3.03612785639581        2.35326214730355        0.52418297229707
C           -3.79955395096320        0.64035520900819        0.42243707607597
C           -4.44879110024559       -0.12464972251003       -0.61420460816503
C           -4.93504965017367       -1.41616894610230       -0.43973417914965
O           -5.51952851502984       -2.11167194204223       -1.43139133190300
C           -5.58367998195126       -1.42691825358001       -2.67375291378282
C           -4.77206879175137       -2.04019794541986        0.79925257792518
O           -5.29374476188412       -3.30992883288236        0.78012768701399
C           -5.11286009908291       -4.08095591729741        1.89871628756542
C           -4.11110488213438       -1.34983117366068        1.83874998345259
C           -3.68884036644737       -0.02019643003682        1.70139907725816
C           -1.72972718104058        2.39160885023870       -0.19231070815025
C           -1.19283288893799        1.02975369185764       -0.57232080783818
C            0.29444700200511        1.04179593024870       -0.48090939640737
N            0.98598198514271       -0.16111112961244       -0.34728689224186
C            2.40331780976793       -0.10064837357587       -0.21859452200425
C            3.21496373440389       -0.29874123021423       -1.52354665733497
C            4.65613534121144       -0.31211797139926       -1.14979071540693
C            5.44494274693525        0.82168943050498       -1.27462883217678
C            6.74643687584073        0.82796712415023       -0.81431539649877
C            7.24730774500525       -0.29912676186304       -0.19610911799640
O            8.53078692600056       -0.39729380147989        0.26821558363881
C            9.35862865671156        0.73040607885265        0.13551960620919
C            6.45617494962127       -1.45903502053419       -0.04626479866351
O            7.11167936753293       -2.51697675987209        0.52000411339231
C            6.41508140187495       -3.72331769774036        0.65415902164435
C            5.16013277284681       -1.46020105842489       -0.52816936743850
C            0.42939911841950       -1.42471885901737       -0.77718448300776
C           -3.87158438028855        3.60729678528327        0.22299322275356
C           -5.30144425603930        3.24080612329654        0.79189085479077
C           -3.33806553015811        4.92120491094101        0.85023892529971
H           -4.59690328183465        0.31422076612410       -1.59201892111450
H           -6.23765833644159       -0.53751686764036       -2.65859807562053
H           -6.01358555886197       -2.16344779637991       -3.31997097995700
H           -4.60974277845237       -1.12545468401387       -3.08841177335657
H           -5.60517396983729       -3.59089592174633        2.70808248598239
H           -5.65579706941668       -5.01563069227282        1.72296286070772
H           -4.02063447860478       -4.23536332260044        2.05884878613349
H           -3.86884828641897       -1.91814890211087        2.73249548352121
H           -3.17106365898930        0.38850516687769        2.58188035114986
H           -1.91142333412360        2.97540386209166       -1.07212101208634
H           -1.00972051400680        2.87522864288934        0.48455998991744
H           -1.78511228221768        0.46799902233480        0.12912810111766
H           -1.63510328231477        0.77544709826811       -1.54603425897189
H           -1.57385605880422        1.92541315216871        2.14293790988948
H            0.83862766883204        1.94673483905165       -0.19487562868337
H            2.68861618254569       -0.86787753867413        0.49695115197982
H            2.67196628449824        0.85453103682787        0.23839846569358
H            2.99609023767927        0.52347782196604       -2.20027028107303
H            2.92475971117651       -1.26432029773837       -1.97036137865790
H            5.06389000158892        1.74041179193960       -1.69937075270055
H            7.34341002879446        1.72002903846204       -0.94029308777689
H            8.94260600134538        1.58037638962158        0.67084978573390
H            9.47866023639249        1.02827460166605       -0.91072535991200
H           10.33743204640828        0.43323931948801        0.52602303946581
H            7.10942686629198       -4.44281171445309        1.09260148517692
H            5.54133244364657       -3.60813852943118        1.28872152175190
H            6.06105506943489       -4.10766091217535       -0.30902964938839
H            4.52882455907191       -2.33182630041632       -0.41495229147510
H            0.41845387585400       -1.53387247929472       -1.86432749344564
H           -0.60318961778285       -1.49126205121506       -0.43868799326857
H            0.99333684270733       -2.25578714839416       -0.34086217029168
H           -3.80650434683825        3.74337303147257       -0.86925792661213
H           -5.21189754295482        3.20530002221036        1.89434707267066
H           -5.80303894307310        2.36845403907984        0.34171308687619
H           -5.94729083372918        4.04367492219021        0.58812382945669
H           -3.51506838634114        4.90215487638526        1.86049158515858
H           -2.29234716612921        5.02264259633122        0.61587366947828
H           -3.90519675971282        5.73223746480440        0.40890641917896
H           -2.74313628102704        3.04455429372950        3.81141271412299
