72
 energy: 9.234148030817 xtb: 6.6.1 (8d0f1dd)
N           -3.17257450707321        2.73670246775370        2.70636490687530
C           -2.35063715789869        2.58687982738973        1.71415316300289
C           -2.41236891848937        3.27716841878537        0.49443386269332
C           -4.03696952473384        0.01288133252352        0.16591123579702
C           -4.71125069826163       -0.73669603270694       -0.79216658364075
C           -5.17073322754929       -2.00579769016284       -0.50870568020566
O           -5.80424949795890       -2.80855030452457       -1.39307854250578
C           -6.09223207318708       -2.32273698389495       -2.67614870851916
C           -4.97616659873524       -2.54367270334920        0.77716472289908
O           -5.46279865323090       -3.81573104665647        0.92503014322159
C           -5.34426584405118       -4.42254343425795        2.17658903905230
C           -4.34829252104515       -1.76468765326652        1.73802369155939
C           -3.86373556217822       -0.49469672074816        1.43800737690709
C           -1.39059386957244        2.98932993445846       -0.56518607540562
C           -0.82216189512162        1.61132222013447       -0.54457093361020
C            0.45382259872753        1.35126284178092       -0.25136466646076
N            1.00142776812069        0.09773978535742       -0.17680953558484
C            2.41031771251121       -0.04285446028240        0.02624755733042
C            3.21100352910819       -0.16855951275914       -1.28316905764383
C            4.68242808512173       -0.22905034535251       -1.00911888574617
C            5.46934404702333        0.90277248735646       -1.06144522805739
C            6.82329872981898        0.84789168304150       -0.76745225702973
C            7.39901143169525       -0.34275988724052       -0.37965972818007
O            8.70942662961698       -0.50827817994598       -0.03642431543535
C            9.56501253367118        0.60519666100910       -0.07472328162724
C            6.60050367749536       -1.50543791188728       -0.30276198796950
O            7.26189769426053       -2.62938717194547        0.09064487278589
C            6.54819032701396       -3.83300402437910        0.17938051258830
C            5.26767362867551       -1.44047623384481       -0.65254338507692
C            0.26021517371934       -1.04941477152687       -0.63967174219250
C           -3.41644974179542        4.36651684765309        0.24673981474061
C           -4.88827014247138        3.84708088248618        0.21919078806740
C           -3.25481660211579        5.45338042064615        1.32190408645635
H           -4.86608755412464       -0.30988000694043       -1.77047362322867
H           -6.76179817680712       -1.45230482651995       -2.68027129775859
H           -6.60414826864717       -3.18154393500670       -3.09795605238604
H           -5.20660754880273       -2.07731963647000       -3.28404294855800
H           -5.88233440561998       -3.85758548983264        2.94446729991465
H           -5.78919264485519       -5.41578847548293        2.05684234387004
H           -4.28978108254568       -4.50190791050040        2.46017722621712
H           -4.22242254447682       -2.13126577427218        2.74246924261367
H           -3.37616796759146        0.07624762444387        2.22897688313816
H           -1.81590231480889        3.17489177304014       -1.55729081438653
H           -0.58144939601086        3.68614132198472       -0.43619473517806
H           -3.58592935170831        0.97412505823788       -0.11532232281283
H           -1.52051776004190        0.88412552738284       -0.87331144884290
H           -1.48060289544448        1.95335819264918        1.87222335717183
H            1.13989596378829        2.15646872280608        0.01677700623576
H            2.59775834591716       -0.92510347744230        0.64565995292534
H            2.77857325302927        0.82364450370843        0.57503227065424
H            2.97895986925797        0.69612218988218       -1.90235003391245
H            2.89720599326811       -1.06609968683379       -1.81965338160524
H            5.03701607013765        1.84953159547675       -1.33722814193763
H            7.41350191597676        1.74704405856894       -0.82446289169062
H            9.25502785483372        1.39702987652226        0.61145541445723
H            9.64237309844618        1.01552979421725       -1.08582694354673
H           10.54118880201402        0.22391870269560        0.21437015724953
H            7.27044714050749       -4.56920817254520        0.52030652813040
H            5.72788540315015       -3.78308157775097        0.89630155886558
H            6.14511974062474       -4.13657920305403       -0.78873938635115
H            4.63977927290821       -2.31900549047421       -0.62005069770152
H            0.05950600345169       -0.97058346279554       -1.70816014146636
H           -0.68898946448776       -1.11408639331639       -0.10656049462785
H            0.83824202735477       -1.95034909715520       -0.45069571820926
H           -3.16660342635560        4.80924637932057       -0.71808886970060
H           -5.10188867228922        3.28267947219624        1.11854365821955
H           -5.04611186345868        3.19421406343544       -0.63409244978390
H           -5.61672678018876        4.65791967496908        0.18075592328826
H           -3.46201281116526        5.00247547916688        2.28782990478743
H           -2.24002884573692        5.82985439038434        1.31807592267058
H           -3.95350205301936        6.25523757283761        1.13365198068914
H           -2.82003735454511        2.35995738688538        3.58653695283632
