72
 energy: 3.854236696953 xtb: 6.6.1 (8d0f1dd)
N           -3.16003970215344        2.77664188738613        2.64280785439069
C           -2.28665908076663        2.65009093387322        1.68669715634960
C           -2.31868648069693        3.37838018115315        0.49267080609222
C           -4.14056240810612       -0.03934028072381        0.18672675724691
C           -4.77454430028995       -0.79319169761740       -0.79285846760020
C           -5.21015666417446       -2.07547144550347       -0.51870092267926
O           -5.84144037763549       -2.89524628309925       -1.40289090769323
C           -6.12486498517241       -2.41230486486929       -2.68942385558067
C           -5.00459937680448       -2.61285430846524        0.77007658791770
O           -5.47773763378773       -3.88608090868670        0.93195912641587
C           -5.36034827662770       -4.48401446287699        2.19241678874873
C           -4.38117815263233       -1.84626308742127        1.73976232428479
C           -3.94398474072694       -0.56015869298142        1.44692780628790
C           -1.30518063809717        3.09023924191350       -0.57323408891404
C           -0.79484515019566        1.67948993882943       -0.56938771415268
C            0.46818077171737        1.38058058394276       -0.25059705967974
N            1.01301333350856        0.12505334832931       -0.18913778057970
C            2.42472322336414       -0.03741948834945        0.00876882762071
C            3.22402206870850       -0.16926809408097       -1.30413992725172
C            4.68928391071808       -0.22962227477889       -1.00340605952017
C            5.47166843703217        0.90641240537739       -1.04694970627488
C            6.82299148037093        0.85152011525900       -0.73793069361324
C            7.40872210994414       -0.34131684715511       -0.36795795603556
O            8.72235591022799       -0.51489265489504       -0.05051611048270
C            9.57744335146603        0.59716864711010       -0.09247292834786
C            6.61416347165530       -1.50837004003204       -0.30954135453084
O            7.27835890181084       -2.63767155222080        0.05876081122207
C            6.57124164886142       -3.84684198071296        0.13830276696201
C            5.27402764059198       -1.43864044848967       -0.63295989633369
C            0.25517587237298       -1.01105864560659       -0.64541195864544
C           -3.34114427539012        4.44910706141350        0.24710723886607
C           -4.77432869112984        3.86941334025903        0.22685480373112
C           -3.22767724351206        5.53233181212018        1.33016338162783
H           -4.92972345269818       -0.35679680692917       -1.76704293352383
H           -6.78964278416647       -1.54365688155770       -2.65543970147396
H           -6.63065279065058       -3.23033518234542       -3.20076263148142
H           -5.21434725199207       -2.15607142640802       -3.24014696416607
H           -5.90856440452015       -3.92256643065042        2.95842898928993
H           -5.79842336067139       -5.47925277785984        2.08101758455310
H           -4.30864947240375       -4.56218155225267        2.49023327027834
H           -4.23446677822040       -2.23113622605265        2.73617614512394
H           -3.45883751304657        0.03187873173191        2.21474458016074
H           -1.75885916041111        3.30766347081054       -1.54700593814860
H           -0.46419917861158        3.77620052895532       -0.46056973848741
H           -3.78237389272387        0.95778929309140       -0.04904336244047
H           -1.51114661580171        0.92234635658009       -0.86268585985841
H           -1.44540117659011        1.95773352900419        1.78366070006424
H            1.15561090626449        2.16939739294954        0.03489146065842
H            2.59353697111705       -0.92529403102231        0.62912631133934
H            2.80211510929528        0.82571930035049        0.56144445720224
H            3.00485827614397        0.69382125469995       -1.93430688972947
H            2.90262077623368       -1.07046436761429       -1.82708544761617
H            5.04019508267644        1.85069198525861       -1.34036779516228
H            7.40998472312382        1.75286029522413       -0.78799321062982
H            9.27931430671407        1.37023965528252        0.62073592373882
H            9.63184656270604        1.03680133122021       -1.09285113214647
H           10.55842289227504        0.21169285677788        0.18051119503055
H            7.30392073946784       -4.57658667369239        0.46961693958094
H            5.75623047384013       -3.80938282452340        0.86303776818797
H            6.16680549239115       -4.15158426885845       -0.82938711352917
H            4.66081240266192       -2.32526548156921       -0.61117288561188
H            0.05355693379481       -0.96050922159406       -1.72107375755803
H           -0.70072267702201       -1.05284895720943       -0.11959855730379
H            0.80784031009624       -1.92206416737548       -0.42824415969303
H           -3.12996057370138        4.92155634358156       -0.72422118532258
H           -4.97111154961328        3.33903265627015        1.15100025387381
H           -4.87742868433329        3.17169033954747       -0.59710727029873
H           -5.51569389097627        4.66266472696832        0.12504108624670
H           -3.43596572691575        5.08429071067574        2.29430049721019
H           -2.22385435927634        5.94732570724893        1.34255487355819
H           -3.93891257361804        6.33315915079694        1.14370359670147
H           -2.90587721696045        2.29321546297080        3.50289018075956
