72
 energy: 40.369089654810 xtb: 6.6.1 (8d0f1dd)
N           -2.34097907166368        2.95134131959610        2.67625587596381
C           -2.09203074308337        2.23537005456684        1.70248567975632
C           -3.03004201242905        2.14993754734583        0.55793975350618
C           -3.71790059649939        0.75174528874921        0.57774073062699
C           -4.38358718276257        0.10235547534109       -0.50764571684316
C           -4.85130628715856       -1.19031922381554       -0.42539120200270
O           -5.48816872693629       -1.81078281293510       -1.43325711827707
C           -5.83061625656364       -0.99689562034027       -2.52795010691965
C           -4.60580650227904       -1.94764197727694        0.71905871069727
O           -5.13601075263579       -3.19362944002728        0.64249454483164
C           -4.84602168451475       -4.08802793509010        1.64010369494896
C           -3.78494310708018       -1.40653327528683        1.67644702219403
C           -3.36995382052754       -0.08445794727251        1.62222380085562
C           -1.94856536300890        2.30369472438944       -0.53050537088961
C           -1.22646034109425        1.05263310427026       -1.02776347170629
C            0.22918956385133        1.00874181726961       -0.74266932275250
N            0.86027118535146       -0.16139621402734       -0.43721452947997
C            2.24581303846313       -0.09715204248169       -0.18591777847787
C            3.10822059942938       -0.45188372815524       -1.41631732031423
C            4.53533246109076       -0.39054970291307       -1.01394071885653
C            5.29158792613976        0.75965687412020       -1.17205833593146
C            6.58502097414902        0.82896107793958       -0.68885450738340
C            7.13722846408002       -0.25685852754899       -0.03492296832766
O            8.42128239449534       -0.29979700399136        0.43719369494827
C            9.21893613045390        0.84232823064078        0.24666536657138
C            6.37850561449697       -1.43152429319019        0.15453538842283
O            7.04545511154177       -2.45177052120983        0.78062578278902
C            6.37198271701309       -3.66634361689872        0.95252236158711
C            5.08595097626722       -1.48406448263114       -0.33963443100954
C            0.26733187246721       -1.42335137534026       -0.73126752630065
C           -3.97030765864659        3.35011694913158        0.29688237610337
C           -5.02020637806469        3.02552480822921        1.36531841268737
C           -3.38614056816898        4.74686705570323        0.59817502941649
H           -4.47867871201303        0.62634666097059       -1.43768521942691
H           -6.39884932613213       -0.08787595075736       -2.23093087491899
H           -6.50294405138911       -1.58017467464653       -3.15237530398928
H           -4.93425007824411       -0.64531040405179       -3.06740506129908
H           -5.16353561568084       -3.64658890028542        2.56392473080006
H           -5.46544545540320       -4.97449756297596        1.47464175302713
H           -3.76360388895854       -4.30682927869024        1.64431618858059
H           -3.38668763300163       -2.06758728002153        2.41588883784453
H           -2.61349071466996        0.25323216348431        2.31524526623651
H           -2.47776970006818        2.73325250606045       -1.38205714635481
H           -1.22956027710247        2.99833106265476       -0.12121430845869
H           -1.62743645476735        0.22062771577617       -0.38605551485088
H           -1.44928490436046        1.05596031156607       -2.10309454182322
H           -1.12723480914833        1.73774483423902        1.50135192561008
H            0.84704815417943        1.87747231510173       -0.60235634889132
H            2.45260447429623       -0.78316629113677        0.63585469646573
H            2.49597951436436        0.90759988771128        0.15546806271715
H            2.87686148627553        0.26714170623915       -2.19459882762646
H            2.83332015593026       -1.45868931843720       -1.75837899301267
H            4.89724194353044        1.64265324328701       -1.64276762632361
H            7.14320848894441        1.73927814522632       -0.84756114793863
H            8.76620964401811        1.70697767007156        0.73599841253869
H            9.31594752680840        1.08951468459341       -0.81855123270466
H           10.19905243782235        0.60033798021400        0.66600504089370
H            7.06508505327129       -4.35455145405583        1.44559144636366
H            5.46906936844053       -3.54111527592607        1.54527808397036
H            6.04852481948145       -4.09810561812034       -0.00721929506828
H            4.48060067247723       -2.36673572591807       -0.20070245492981
H            0.23233387550570       -1.62564633043267       -1.81305147383462
H           -0.73848271115048       -1.42894032676982       -0.33224095598054
H            0.80495202601251       -2.21730492809818       -0.22933945794295
H           -4.19668804310501        3.27959541792356       -0.77624027857142
H           -4.41542516819830        3.00769376395305        2.27675115232672
H           -5.49961783307685        2.08444898739480        1.10302078541899
H           -5.73767831346142        3.78753724479336        1.49843259365203
H           -3.03612408600660        4.80898072756008        1.57234891149440
H           -2.49757484679929        4.87145189659392        0.01848151393822
H           -4.05706840765748        5.51719583955166        0.27343642751404
H           -1.68382087711554        2.95735736773693        3.42076379622837
