72
 energy: 32.867048659399 xtb: 6.6.1 (8d0f1dd)
N           -2.16220154758768        2.92401067916186        2.60485668004860
C           -1.97938013202089        2.21218435564843        1.60986842584491
C           -2.99871300304918        2.13139582631154        0.53406201640724
C           -3.67013845457451        0.74540017534407        0.56827365986147
C           -4.36816523429735        0.13201024275204       -0.49830283953576
C           -4.84039181010043       -1.15886498392393       -0.43182664908775
O           -5.54290021067904       -1.75090462311081       -1.42252100349232
C           -5.93228247952574       -0.91665620153069       -2.48305652709608
C           -4.56213979322088       -1.94941588651737        0.67563780491303
O           -5.10839505507723       -3.18817718900621        0.59899082841789
C           -4.79778438189090       -4.09107316761534        1.58723696765155
C           -3.71036937897633       -1.43057242728350        1.61794685090881
C           -3.28170550485922       -0.11374421695911        1.57457867864949
C           -2.01097865821009        2.29731437401588       -0.64990101520039
C           -1.23261420264766        1.08678194494289       -1.18051254604465
C            0.19243146221115        1.02832918781600       -0.77716021839476
N            0.81444029650371       -0.14520547056296       -0.45710128020272
C            2.19727480494821       -0.09245172207882       -0.17777427710601
C            3.07715060933134       -0.47838342740159       -1.38798860144821
C            4.50405841442436       -0.40345896171457       -0.98070129346246
C            5.25337963176077        0.74957340102944       -1.14706303010577
C            6.54857572516399        0.82995060301469       -0.66643038762622
C            7.11399401429689       -0.24791603754856       -0.00916935713522
O            8.39793999250688       -0.28105788341278        0.46290175459276
C            9.19183271111805        0.86244620431060        0.26454687976999
C            6.36198364805998       -1.42603418479086        0.18729435344891
O            7.03175374511762       -2.43911253717934        0.82168197535611
C            6.36381951608198       -3.65604327155361        1.00188111334845
C            5.06825523817242       -1.48763166484400       -0.30333641885949
C            0.20483722002855       -1.40850936038695       -0.70511323877570
C           -3.97173845109187        3.30670237111112        0.34418758048757
C           -4.93543694547802        2.98870829968147        1.48904351133539
C           -3.39664565907174        4.71597294695015        0.57791536178134
H           -4.45697929219632        0.67828705303341       -1.41080120258718
H           -6.46502864871404       -0.00549751046286       -2.12777305842895
H           -6.64995444310601       -1.47104366736189       -3.09256368312916
H           -5.06213874714751       -0.55558520300139       -3.06081032003080
H           -5.08418843651107       -3.65701944885816        2.52969910322124
H           -5.42152644232277       -4.97386752213322        1.42713168434958
H           -3.72067050273976       -4.32113756600457        1.56936039654455
H           -3.29716244372747       -2.09776108133333        2.34202484082365
H           -2.49917311543717        0.21316339007286        2.24389423896349
H           -2.61737950364892        2.67692776071918       -1.47283352338636
H           -1.30397452710827        3.04090800424022       -0.31783099715838
H           -1.66190745290324        0.21794054889500       -0.64856455257104
H           -1.37291355918024        1.14326581179725       -2.26905932663906
H           -1.03358798489267        1.70978778281500        1.34387145879427
H            0.84255198225267        1.87785089125728       -0.68057472086256
H            2.38971028127735       -0.76488421429897        0.66113641220851
H            2.44867434013077        0.91799836721056        0.14375943333374
H            2.84969091005601        0.21675480877382       -2.18977296940145
H            2.80851873073242       -1.49170335267732       -1.70980528285370
H            4.84919659576050        1.62335803700883       -1.62556759128862
H            7.09974249526914        1.74329101439842       -0.83092093209116
H            8.73728035875640        1.72981750344203        0.74963712602076
H            9.28781541137870        1.10156977485830       -0.80287439482457
H           10.17119262923183        0.62816380263790        0.68898365977974
H            7.05965793321526       -4.33593507087161        1.50248122670447
H            5.45902324902855       -3.53104425708964        1.59332813732159
H            6.04548985927303       -4.09648587783516        0.04420027825919
H            4.46998409310631       -2.37396237578389       -0.16033917081024
H            0.13291491258962       -1.62964516784189       -1.77978430996267
H           -0.78828689452623       -1.40083995806268       -0.27575283022786
H            0.74995795252868       -2.19597420959903       -0.20233529891171
H           -4.30827430902444        3.22085409220550       -0.69054889426648
H           -4.25812568336686        2.97729471302145        2.34834196267134
H           -5.39985584051325        2.03356858236932        1.26060359082725
H           -5.66968770032090        3.73334486899211        1.66867700559634
H           -2.92214027043884        4.77860868427549        1.50639088922664
H           -2.59896449409829        4.86580074198161       -0.10750228832750
H           -4.11499453959937        5.47577429249643        0.37432528251280
H           -1.46147508250451        2.92463010908193        3.30992397982650
