72
 energy: 26.289518094482 xtb: 6.6.1 (8d0f1dd)
N           -3.30740799429909        2.84526987408944        2.77582490775164
C           -2.49505060511555        2.48929433208536        1.79519177373540
C           -2.57463008309560        3.07772731868318        0.50634513547831
C           -3.84812178092349        0.10207433090360        0.15937834117681
C           -4.57939684980337       -0.62706106600875       -0.78138391355524
C           -5.10282170671983       -1.87019853069936       -0.49826929476766
O           -5.73859250903207       -2.64744489452107       -1.39592422633139
C           -5.98288402185088       -2.11776163718367       -2.67591957987238
C           -4.93493882302673       -2.41426595641114        0.78262389258349
O           -5.43570903144315       -3.68335208977742        0.90472498114243
C           -5.31605294305879       -4.30887511314163        2.14001182676949
C           -4.31862448760741       -1.61819769412527        1.73936538000586
C           -3.77843892546684       -0.36303651086296        1.45679059646039
C           -1.55718696093129        2.80802388094687       -0.56452518327076
C           -0.91391678879749        1.46369070329402       -0.53783612336529
C            0.37176374977134        1.27423915766268       -0.20819257613623
N            0.99357689203873        0.04227169141343       -0.15848780923542
C            2.42017939938301       -0.07102712374985       -0.02117887600367
C            3.21514420236225       -0.18366008231747       -1.35191184802872
C            4.68666732235467       -0.23760356899631       -1.07230454948938
C            5.47891792814032        0.89116108633409       -1.13764633565169
C            6.82885362086178        0.84088651780492       -0.82411542216136
C            7.37633036438264       -0.33945131319979       -0.36625013247104
O            8.68065439770989       -0.49267499060997        0.03308605801691
C            9.53637657465703        0.61933980941257       -0.02419528249398
C            6.57096770497633       -1.49931554110457       -0.27550961392173
O            7.22865612391085       -2.60855098728533        0.17311612443475
C            6.50582136355630       -3.80765590631030        0.26693352801078
C            5.24746806525087       -1.44688411599622       -0.66750313290215
C            0.30524919891998       -1.12931095205114       -0.65099618274190
C           -3.54289571445592        4.18751553647610        0.25356184920994
C           -5.05546981058877        3.70113455915899        0.30596397867415
C           -3.28328152228640        5.29486538839844        1.28586195571394
H           -4.74037275968381       -0.19843750938543       -1.75543239536140
H           -6.65094362519876       -1.24469542082119       -2.69151793473968
H           -6.47822291759993       -2.96690265412098       -3.10864452253859
H           -5.08414709911544       -1.86275377935457       -3.26527723083304
H           -5.85419709677051       -3.73929196487505        2.90197112200722
H           -5.76474713306717       -5.30246685584895        2.00221302390476
H           -4.25720504740638       -4.37106314903502        2.41568306580760
H           -4.17190498939756       -1.98109355540521        2.73671764255127
H           -3.34619812552990        0.21518905049185        2.29407811029857
H           -1.95079890637763        2.99458157046178       -1.57040203368605
H           -0.82243763683806        3.54769149167853       -0.35167058951795
H           -3.24006650314560        0.98456712425313       -0.13090542462629
H           -1.47223068729152        0.75268839710013       -1.10472727271584
H           -1.59514296357204        1.96419877776031        2.09618622136708
H            1.00855682045986        2.09656091771879        0.14472014471690
H            2.66234197804748       -0.94804624266536        0.58758802438927
H            2.76634734126723        0.80865325374551        0.51231831260865
H            2.98504233175697        0.67716315214007       -1.98076410212052
H            2.91964780253336       -1.08310984514032       -1.90123404302144
H            5.05146966272893        1.83570524377381       -1.42829300453508
H            7.42335890993602        1.73856648527750       -0.89387662272319
H            9.20096423901622        1.43955960950820        0.61571325857378
H            9.64523620967334        0.98872557713913       -1.04726858809657
H           10.51797436462515        0.25966496554381        0.29961648680750
H            7.20821538719408       -4.55967430457911        0.62145270813641
H            5.68491175851573       -3.73436316005978        0.97827420738741
H            6.10083026970661       -4.11465859990501       -0.70118968575123
H            4.60886892847008       -2.31764349436780       -0.61131468604018
H            0.15622767416383       -1.07574898894178       -1.73205014924701
H           -0.65911434321044       -1.21549568503330       -0.14647361313083
H            0.90076939628449       -2.00960385201126       -0.42512060289160
H           -3.26450194464167        4.56640191671131       -0.72338478885261
H           -5.28417840487757        3.25197340534125        1.27356022089593
H           -5.29003199224790        2.99464834823636       -0.48561460670196
H           -5.78800312978865        4.48624465120471        0.19336547025973
H           -3.51685049615854        4.87220638854152        2.25284281854859
H           -2.25077942320604        5.60402498519412        1.23930946435710
H           -3.94258476647128        6.10407539120346        1.06352328892710
H           -2.92601882831759        2.66928040024926        3.70836101307586
