25
 energy: 61.997844354528 xtb: 6.6.1 (8d0f1dd)
C            3.78319791441951        0.87086544180623        0.09556880838555
N            2.77650577210613       -0.14013978428921        0.08429956831867
C            3.02746322361693       -1.45470102311547       -0.12393180232375
N            1.85826373436821       -2.14441698842057       -0.03509465685756
C            0.77553267200494       -1.28177510135214        0.02623107147677
C            1.37439607877458        0.04994810894214        0.13304546344779
C            0.70109028199060        1.17967261767689        0.19777451324116
O            0.25810170552954        2.26282517994832        0.39050688780671
N           -3.01613497597937        1.48920041910352       -0.29019046773591
C           -3.28652558923719        2.86475923009197       -0.20412747116755
C           -3.44792302923743        0.43363619170725        0.03521821014472
O           -3.63466597906698       -0.70209606034032        0.17331152119125
N           -0.47120473489875       -1.50641538960881        0.01649623198799
C           -1.04356130939074       -2.81022283375466       -0.02088256909046
H            3.79349045007228        1.36053317295174        1.07531046153708
H            4.76074225022572        0.40422991059932        0.00386419158509
H            3.65979912360835        1.58535721430998       -0.72435460080203
H            4.00585828227718       -1.87004479740755       -0.18365183212627
H           -2.33401927013044        3.38570459936031       -0.07978489451974
H           -3.78564762585716        3.18652954346095       -1.12278518711676
H           -3.94813108695535        3.04441795446370        0.64643452717723
H           -0.51008862155407       -3.51346699953126        0.62935624792010
H           -1.04760736782691       -3.19204115248768       -1.04940652980991
H           -2.07667122274084       -2.71479951533172        0.32716290179379
H            1.78561714990101       -3.13195736978350       -0.17789114561460
