25
 energy: 64.879888093694 xtb: 6.6.1 (8d0f1dd)
C            3.76930136067765        0.84597441577276        0.12431747974234
N            2.73292359841728       -0.13064536282934        0.09956232327796
C            2.97342020457554       -1.43277601848928       -0.15827049575126
N            1.80812110643779       -2.11050946193530       -0.05397941185950
C            0.73378876506136       -1.23562279267100        0.02144802855912
C            1.33615217307788        0.08388197324090        0.14224255656289
C            0.63341385491801        1.20506435888125        0.18828004116179
O            0.32280317181260        2.30866874839344        0.50117883750723
N           -2.84346297888676        1.43780686663576       -0.30788565682275
C           -3.25906592014179        2.77594189953782       -0.22156205956617
C           -3.34433808943894        0.39880651776248       -0.00815717499913
O           -3.60584681874536       -0.71151207854461        0.20151288184708
N           -0.51374079017167       -1.45268401045058        0.00570587124933
C           -1.05059011902121       -2.77239797781081       -0.01837552294117
H            3.72441318251579        1.43089747503921        1.04036556509943
H            4.73329957567217        0.34205963597144        0.19473688246981
H            3.79111681405305        1.44920691640989       -0.78493139117948
H            3.94097636918375       -1.86377994811979       -0.21906727880683
H           -2.38770065414298        3.40838860623036       -0.09196426631671
H           -3.77418407854808        3.04577657348870       -1.14246953967267
H           -3.93412079035273        2.89710510159066        0.62612604767494
H           -0.43464210933961       -3.46145801864772        0.57977237572297
H           -1.08599332510602       -3.14818058221094       -1.04593413039151
H           -2.06073545081284       -2.72979050437579        0.40467672131882
H            1.75988728338147       -3.10030693467080       -0.17708934131893
