25
 energy: 67.220125699160 xtb: 6.6.1 (8d0f1dd)
C            3.75281247001871        0.84499077834631        0.12717062262032
N            2.70326036946948       -0.11795967872046        0.09697574548168
C            2.94183279815913       -1.41769616005376       -0.16769572301208
N            1.77844815350252       -2.09768968943058       -0.07231401233222
C            0.70879340483488       -1.21402532885970        0.01795783270104
C            1.31055427342718        0.10090422002271        0.13257693352216
C            0.60516099728001        1.22993637705625        0.16736599848659
O            0.34590642114096        2.32553763969392        0.55463782020017
N           -2.74173551703920        1.41808820464891       -0.30735266805411
C           -3.20433169064019        2.74155271200304       -0.22380201566673
C           -3.26671604658576        0.39860059191174        0.01474763994826
O           -3.61801667422339       -0.68682025010582        0.18734131401764
N           -0.54061017555857       -1.42420692189851        0.01135413592940
C           -1.06244114880626       -2.74987741977601       -0.01944446015843
H            3.69827057141085        1.47346146709816        1.00970004705638
H            4.68919173558971        0.31029380308129        0.28095953762507
H            3.86280748423117        1.37710571630223       -0.82155487959195
H            3.90867831400795       -1.84896099999048       -0.22584534181168
H           -2.36080293123991        3.41257757188185       -0.08846182432126
H           -3.72197935884498        2.98695042972292       -1.15008491273731
H           -3.89679785865911        2.83385615425489        0.61093142045394
H           -0.42344796572592       -3.42780379330388        0.55428921414660
H           -1.10610348339027       -3.12407152630819       -1.04820581881375
H           -2.06071110076365       -2.74817180359735        0.43268784085918
H            1.72520963177384       -3.08719538837087       -0.17362340144780
