25
 energy: 31.307147104016 xtb: 6.6.1 (8d0f1dd)
C            3.45875937546904        1.06990831343819        0.09910534690878
N            2.38445927001238        0.11852125393776       -0.01204954535852
C            2.63041975275653       -1.24387814218157       -0.03131241542611
N            1.42951296294343       -1.90032843298446       -0.10089862078259
C            0.41526961708187       -1.00068533573407       -0.03641985277541
C            0.94265237211594        0.29808425573835        0.03221870415439
C            0.01496908830931        1.37569693603213        0.10777402441063
O            0.19575001430845        2.56698653829707        0.21452427773210
N           -1.65785734583498        1.09461579610857       -0.09364558104305
C           -2.51801991455861        2.29879715167703       -0.12863546131577
C           -2.13557104696775       -0.13012885740359        0.00447682395933
O           -3.20684434390444       -0.63922448596610        0.08087943378642
N           -0.92736925472359       -1.21742490642610        0.00845988174422
C           -1.32112259541456       -2.62180508338285       -0.04174078244241
H            3.75461176265035        1.29167757579066        1.13447306711063
H            4.37279122892975        0.66916685288201       -0.39563629060451
H            3.23259985635946        2.00355812908783       -0.39184335316071
H            3.57026746972486       -1.75368904402874       -0.11422629243246
H           -1.88157243870363        3.17344054891300       -0.06225898909798
H           -3.08230431487806        2.40450011069715       -1.05456414303270
H           -3.21579206392879        2.35376590437876        0.70656198823115
H           -0.83319172388039       -3.21145390017611        0.74823136436057
H           -1.05911946041395       -3.06578958624126       -1.01424653019609
H           -2.39989011276658       -2.68429220938164        0.11208269420821
H            1.37381527266828       -2.90777177102495       -0.13040185893583
