25
 energy: 1.640805250001 xtb: 6.6.1 (8d0f1dd)
C            3.35375372668270        1.12697068504669        0.10551115477557
N            2.32875440932274        0.12562010140833        0.00751635406683
C            2.59844117491260       -1.25271670039450        0.00534784117959
N            1.38503231728313       -1.90865796602729       -0.04635340154114
C            0.38199831510694       -1.00508972607182       -0.01841350960660
C            0.90139151385668        0.28159230695107        0.02732330397088
C           -0.00843713855467        1.38094264154625        0.05377429809198
O            0.31709558721101        2.56997835740547        0.09720969533834
N           -1.46144130286891        1.05923476136398       -0.03448408087776
C           -2.37612923699930        2.20997503548923       -0.08546828038348
C           -1.97866515263216       -0.19987651872257        0.00000029338387
O           -3.14371315774011       -0.49779706197545        0.00057986612271
N           -0.97017667136573       -1.24264485233914        0.01145618990891
C           -1.40008418559586       -2.63040402746514       -0.04531749087246
H            3.76058368763583        1.24083419859509        1.13728561072492
H            4.20484510250793        0.85943773935787       -0.54326650840953
H            2.96680081275507        2.07857017322916       -0.23826102790311
H            3.56490874139454       -1.71983851173148       -0.01329330490804
H           -1.77672662571255        3.11869662677942       -0.05295480515244
H           -2.96631430192903        2.23824184080988       -1.00021599371458
H           -3.05255121509530        2.21267155907170        0.76679321422489
H           -0.99994752335886       -3.20704052358122        0.79481080408254
H           -1.09568999825026       -3.11515837906726       -0.98097400002916
H           -2.48540746835237       -2.62428993667100        0.02214149836073
H            1.30195250621265       -2.91394824579311       -0.08072406263139
