25
 energy: 60.456248554756 xtb: 6.6.1 (8d0f1dd)
C            3.78985518561674        0.88098932009513        0.10781287491297
N            2.81166388027797       -0.15476374683136        0.04214784422257
C            3.07091677182440       -1.47955833665611       -0.07264564074074
N            1.89619182791858       -2.17171163560872       -0.04470197875066
C            0.81205097757060       -1.30739152866158        0.03464980625829
C            1.41645677807436        0.02641379765048        0.12388225707100
C            0.76262181047039        1.16537518680753        0.21368632192789
O            0.18274305018853        2.18796423998354        0.34454764100454
N           -3.18629871414870        1.54724948680333       -0.34553671018812
C           -3.31760234317809        2.94357470692327       -0.19757872160238
C           -3.50511286470763        0.44842915465651       -0.04220047525672
O           -3.61235642786139       -0.67654436908007        0.21834071455004
N           -0.43754923177601       -1.51609547012575        0.04345742519463
C           -1.04006451485097       -2.81243066958755       -0.02658393385870
H            3.88086466433164        1.28232565019480        1.12375822182559
H            4.76459002382595        0.47846960472185       -0.17419839243803
H            3.53098472238334        1.68355691412375       -0.59339226308111
H            4.04829347794744       -1.90244211331692       -0.13522135266449
H           -2.31580219723679        3.35991035820975       -0.09675896501484
H           -3.80282426944073        3.33673959343472       -1.09341891719037
H           -3.92790275576443        3.18497516625711        0.67625693830079
H           -0.58714901168025       -3.55868796037038        0.64142459418999
H           -1.00522414547825       -3.20751486029351       -1.04803467924239
H           -2.08365181802055       -2.67845233427265        0.24883874896641
H            1.83123462899709       -3.16694972787060       -0.15430704434172
