  25
        -42.15143523
 C          2.7718719325        0.8504320497        0.6308822847
 N          2.0930419331       -0.1275743065        0.0897362893
 C          2.7843244665       -1.1713291816       -0.5676105828
 N          4.0070280866       -1.3085370826       -0.3427737084
 C         -0.0596181858       -1.2699984514        0.1571161510
 C          0.6879525244       -0.1304031621        0.0696419456
 C          0.0133305638        1.1708624258       -0.0717080772
 O          0.6094681815        2.2181614953       -0.1933026474
 N         -1.3644866606        1.0993441500       -0.0752231729
 C         -2.1186081037        2.3405324546       -0.1641138652
 C         -2.1239348649       -0.0485848001        0.0450679785
 O         -3.3230437974       -0.0284689539        0.0692857345
 N         -1.4009294622       -1.2485285870        0.1365200369
 C         -2.1608141098       -2.4761785471        0.2667381091
 H          3.8449519501        0.8395480619        0.5152264942
 H          4.5267304597       -2.0407667893       -0.8094838216
 H          2.2849528499        1.6415046991        1.1732172165
 H          2.1467555331       -1.7605869511       -1.2327681358
 H         -1.4195709924        3.1576968180       -0.3282966975
 H         -2.8339097926        2.2785997631       -0.9839416543
 H         -2.6733662198        2.4995913047        0.7616718674
 H         -1.9329682085       -2.9671833451        1.2133779264
 H         -1.9351504096       -3.1540087326       -0.5567379732
 H         -3.2203804400       -2.2227662037        0.2422679064
 H          0.3946881061       -2.2451911823        0.2770632348
