  25
        -42.11009793
 C          4.4862551412        1.6909052792        0.4753314522
 N          3.6626231598        0.5649873697        0.5303849877
 C          2.1098271387       -1.0184053061       -0.2555553794
 N          0.9098515664       -1.4921287973       -0.2709573926
 C         -0.2484659914       -0.7747775039       -0.1523478709
 C          2.8450592217        0.1229294535       -0.3487679430
 C         -0.3793290090        0.6833113968       -0.1776761562
 O          0.4838076658        1.5222315403       -0.3193208153
 N         -1.7344298548        0.9018851205       -0.0141667893
 C         -2.3560113275        2.2045752784        0.0027490091
 C         -2.4330692110       -0.2775721614        0.1054064274
 O         -3.6055363165       -0.4470248851        0.2569680539
 N         -1.4710403577       -1.3171230247        0.0137513951
 C         -1.8301630736       -2.7048538432        0.1107535439
 H          4.4567332088        2.1795851908        1.4537326254
 H          5.5201102460        1.3631896202        0.3140871756
 H          4.2033182295        2.4110728957       -0.3018134156
 H          2.7875411758        0.5969570116       -1.3415218479
 H         -1.5659168773        2.9522642870        0.0363053211
 H         -2.9607771458        2.3456654206       -0.8943713221
 H         -3.0009360218        2.2936828083        0.8765498471
 H         -1.3301582983       -3.1794681498        0.9574985268
 H         -1.5884080766       -3.2387142857       -0.8104992169
 H         -2.9083701354       -2.7453365154        0.2683376092
 H          0.7976228437       -2.5114076341       -0.3067420864
