25
 energy: -42.187964673684 gnorm: 0.004778451180 xtb: 6.6.1 (8d0f1dd)
C            2.16930826702979        1.52512146411513       -0.32283070399126
N            2.11621247390901        0.07268819914089       -0.18933719973398
C            3.27367371682729       -0.66237541819172       -0.14959711133373
N            4.36477977251347       -0.05127500275982       -0.27627543298365
C            0.11120685552147       -1.47342765915993        0.04128592371026
C            0.79739790850477       -0.29500845063598       -0.05514366029281
C            0.05894071535606        0.91480068391489       -0.03895744773769
O            0.82546595353467        1.97535038780952       -0.17029111194171
N           -1.25096542791945        0.93511225852789        0.10468735102730
C           -2.01440701736381        2.16714604376141        0.15123077775475
C           -1.99396109259215       -0.27952346442288        0.20307679833230
O           -3.18345074853541       -0.24590972631445        0.31884095572985
N           -1.24484077419488       -1.43895366170447        0.15300753185521
C           -1.97514289073538       -2.69583076897188        0.20540090215687
H            2.54775012011677        1.82062761715992       -1.31330520867218
H            5.20463681656002       -0.61483461715849       -0.24501499947609
H            2.81295796525035        1.97128791740362        0.44744484180940
H            3.10482019383808       -1.73555237835608       -0.00987024328995
H           -1.33164078605591        3.01095102230143        0.19143953156069
H           -2.65149806725561        2.23662845252574       -0.73062501103637
H           -2.65980909865509        2.15136503900026        1.02953966661250
H           -1.66421525317153       -3.27867885417388        1.07183383094969
H           -1.79462777223893       -3.27061148735769       -0.70281943716348
H           -3.03797195507803       -2.47490930709850        0.28475067918202
H            0.57581163893996       -2.44594974776157        0.03270039486466
