25
 energy: -42.137220064937 gnorm: 0.003439898087 xtb: 6.6.1 (8d0f1dd)
C            3.21175531907901        1.12339446197632       -0.05893582672430
N            2.26746762290838        0.04427015058265        0.04605374468603
C            2.55508975420885       -1.25631806948824        0.15511521231791
N            1.41268897803205       -1.97353078888995        0.26347366796692
C            0.35994169249731       -1.09682539076945        0.22057706001127
C            0.89923263330009        0.17870347328567        0.08098914444862
C            0.07364459679768        1.35408831209668       -0.03204246815544
O            0.46869571274973        2.49596195460060       -0.15701591604733
N           -1.28949128261282        1.02925175505439        0.01527250518762
C           -2.23797297690782        2.12923159622577       -0.08843710924869
C           -1.86242962661950       -0.21135581079066        0.14815459747239
O           -3.04881300257949       -0.39072410478187        0.17260480268646
N           -0.97276845388450       -1.34596596653697        0.28156933752837
C           -1.52114252553404       -2.56529405293315        0.42357529002996
H            3.79163853187700        1.20959505602973        0.86152539170527
H            3.89664839686457        0.94914420735322       -0.88885081983104
H            2.66644789880886        2.05246030099723       -0.22396544078074
H            3.54156393790679       -1.67470885614753        0.15526088563256
H           -1.67359334673438        3.05899585368691       -0.12894791996294
H           -2.84316815562214        2.01808682857960       -0.98885662397737
H           -2.90411098745646        2.12568126802438        0.77469355913569
H           -0.90839775545479       -3.41210812014002        0.66486683246353
H           -1.49195206324715       -2.41525390517802       -2.40500111077171
H           -2.59295018812039       -2.62891070143681        0.41256312779064
H            1.36240680384310       -2.97963090980055        0.32692969433623
