72
 energy: -99.352862665537 gnorm: 0.003856628128 xtb: 6.6.1 (8d0f1dd)
N           -1.92821262369129        2.84807887777078        2.20670580773848
C           -1.89706288868790        2.13405200859458        1.18380779334142
C           -3.05389973089557        1.92076959110683        0.24773215028955
C           -3.52089952977023        0.47555962507794        0.33679801447898
C           -4.45052287541909       -0.01031026045276       -0.58493784121078
C           -4.91581034872068       -1.31353212412476       -0.52580725925042
O           -5.81640376424999       -1.85861367792805       -1.36796599882077
C           -6.43203262364245       -1.04820084802437       -2.34157459775891
C           -4.43173106372466       -2.18433081823396        0.48858911026359
O           -4.93306402594117       -3.43450090310400        0.46729708353369
C           -4.58430716047814       -4.33091997475317        1.49664314331521
C           -3.51006927503025       -1.69509524101902        1.40057673700727
C           -3.06355990983225       -0.38159161510654        1.32581396373210
C           -2.50686322312612        2.21045166616695       -1.17461015727858
C           -1.57423065182240        1.11905096173329       -1.73038197391142
C           -0.24196847568299        1.08975838425569       -1.08624975985517
N            0.40900865644830       -0.00344765929586       -0.71166353723401
C            1.79560441977199        0.07086031862915       -0.31239202751062
C            2.73362790461490       -0.39823422393498       -1.44073625564872
C            4.16572957580221       -0.11664615847789       -1.07449425901997
C            4.73285833786017        1.11262879058317       -1.38166211498148
C            6.04789795678696        1.37771725990528       -1.02941041722520
C            6.79756566978373        0.43110732984436       -0.36663481373801
O           10.19092786954874        0.17535393689626        1.24302881679800
C           10.02235046223958        1.33928292912082        1.04323593799647
C            6.23816429000466       -0.81310470183818       -0.04785644974762
O            7.05202174574467       -1.67039573732652        0.59516917465984
C            6.58802939068980       -2.95619697746286        0.93391976788186
C            4.91647925879904       -1.07519515384771       -0.40536415835071
C           -0.19885877470856       -1.31198681729504       -0.75743621897958
C           -4.26782508474848        2.84842957642611        0.55138549234539
C           -4.88746718768857        2.52787760894127        1.90950866151396
C           -3.92204014557406        4.33309831759142        0.47974616774933
H           -4.82759448849916        0.64591129930334       -1.35157195579900
H           -6.95380771710898       -0.20099816955012       -1.88661433307575
H           -7.15539731855110       -1.69036726546030       -2.84015356562366
H           -5.70843836490926       -0.68228478723836       -3.07735166737369
H           -4.86255406588949       -3.93913869006460        2.47931030593499
H           -5.14932487919818       -5.23915970914376        1.29668325568743
H           -3.51409278097729       -4.56076270026878        1.48390582551884
H           -3.13803823765118       -2.32724656062154        2.19035602309725
H           -2.36982266105654       -0.02898868569414        2.07328039345485
H           -3.34824926144405        2.31488355282607       -1.85859795634061
H           -1.97426034663927        3.16196861144912       -1.16045164224104
H           -2.06993900681090        0.15139238343318       -1.67630856062861
H           -1.41421368872549        1.35375461152357       -2.79084142916288
H           -0.98758036663097        1.61141663097735        0.82495779675224
H            0.31523344015684        2.01529534699968       -1.05938313645003
H            1.94859842243447       -0.54865815638008        0.57540770376024
H            2.04147318679433        1.10321684820823       -0.05477384530350
H            2.47584972827941        0.14189192793081       -2.35368959671979
H            2.59213321766513       -1.46483738260017       -1.61843847721001
H            4.15647526580087        1.85768146603542       -1.90866055582057
H            6.48757037143881        2.33004049604497       -1.28236066377642
H            9.57404272430858        2.01144790807362        1.78888614417214
H            7.82238768641108        0.61627170689482       -0.09177345068989
H           10.31215842298625        1.83252585148054        0.09921845339172
H            7.42227262128463       -3.44495761137030        1.43285784193562
H            5.73539497936970       -2.90711589443870        1.61875985799902
H            6.31237849069517       -3.52956017153324        0.04335898313891
H            4.46811411315232       -2.03054106808314       -0.17984148587298
H           -0.36167246944454       -1.63616486899126       -1.78765853580040
H           -1.15864551027635       -1.30546401940696       -0.23478479662538
H            0.45618666341461       -2.02877802322311       -0.26881601069303
H           -5.01875897429122        2.63878700509426       -0.21888321898095
H           -4.17769610584354        2.74168094185836        2.70215913666688
H           -5.18206640291706        1.48304861842913        1.97107329453382
H           -5.77099957046385        3.14218314274248        2.06100219111584
H           -3.15591964463607        4.57829408145224        1.20890068913071
H           -3.58241692743801        4.62462106147080       -0.51066465423210
H           -4.80911753285815        4.91657857694409        0.71173574267191
H           -1.07658358957385        2.94449692659041        2.75025075978843
