25
 energy: -42.488593044842 xtb: 6.6.1 (8d0f1dd)
C            3.54901395539528        0.94179595322735        0.12139695857179
N            2.52526189547197       -0.06256071950981        0.01069919765328
C            2.77241311203754       -1.37064088696253       -0.03926762108436
N            1.60621133741396       -2.06388127301453       -0.05354962965120
C            0.58950428184208       -1.12969576745172       -0.01009351565997
C            1.16896069775117        0.13184198835000        0.02834153486717
C            0.30610924790822        1.36182353704106        0.07373165448131
O            0.80802219869958        2.47007926126020        0.16579741102732
N           -1.03761332786451        1.11633781769246        0.03742236327919
C           -3.36821939968164        2.66800980022783       -0.15935898666220
C           -1.62410017090277       -0.04240229710740        0.03012210038172
O           -2.78497848836463       -0.35183301847747        0.05742163708688
N           -0.70971236323060       -1.30708706163511       -0.01107524556170
C           -1.28919252184051       -2.61688410314032       -0.03223802059531
H            3.95807037981320        0.95354575779822        1.13486181547782
H            4.35451461882405        0.66837748430590       -0.56552621425033
H            3.18051015196641        1.93466964898170       -0.10737201258437
H            3.73302756432749       -1.82392994328918       -0.10095935065919
H           -2.82611620029693        3.57152225452294       -0.14659336764330
H           -3.77938617750364        2.34699639074325       -1.08147555422863
H           -3.85869632917350        2.36331357153803        0.72657371467028
H           -0.95256198167535       -3.17799470228941        0.84019886858676
H           -0.99872153839119       -3.13558373755115       -0.94744903773593
H           -2.37233009255623       -2.51429081163627       -0.00321892998441
H            1.53815153452807       -3.07540930430503       -0.08642316268103
