  72
        -99.34673763
 N         -1.4781841810        2.5625019990        2.2509986681
 C         -1.7094390704        1.7982483729        1.2878896382
 C         -2.9564004451        1.8611514858        0.4450125513
 C         -3.6259112339        0.4987283536        0.4403990033
 C         -4.6186769066        0.2074498955       -0.4963102873
 C         -5.2461889710       -1.0282948377       -0.5259113016
 O         -6.2022604964       -1.3965498208       -1.4021951845
 C         -6.6673640786       -0.4663665133       -2.3515251153
 C         -4.8782780539       -2.0236306382        0.4215539414
 O         -5.5247936372       -3.1995222019        0.3107522383
 C         -5.2385804070       -4.2280402329        1.2303761560
 C         -3.9116008447       -1.7160451110        1.3675872129
 C         -3.2988322891       -0.4716880685        1.3774940769
 C         -2.4757743985        2.2524711521       -0.9811060047
 C         -1.8678514466        1.1197115168       -1.8161717400
 C         -0.5480552125        0.6196779982       -1.3089173837
 N         -0.1706349204       -0.5623385598       -1.1115256607
 C          3.1306330128        0.7981646390       -0.0266844748
 C          3.2895289910        0.3834711095       -1.4322686721
 C          4.5350036071        0.3952177450       -0.5153438113
 C          5.5026855229        1.4515946268       -0.7253034821
 C          6.8370293150        1.2464315366       -0.5352517713
 C          7.3313579005       -0.0016176971       -0.1212614869
 O          8.6138182165       -0.3027477156        0.0745344252
 C          9.6174864495        0.6615756187       -0.1685776676
 C          6.4057508178       -1.0763050834        0.1240902577
 O          6.9899628702       -2.2167318296        0.5415578544
 C          6.1803206509       -3.3372160018        0.8194790366
 C          5.0692430827       -0.8837198047       -0.0726769943
 C         -0.9938541450       -1.7208258421       -1.2966978267
 C         -3.9962356141        2.9055837168        0.9497574675
 C         -4.4891752793        2.5713292939        2.3556750783
 C         -3.4769878002        4.3404612480        0.9140180268
 H         -4.9074173353        0.9609833694       -1.2108600779
 H         -7.1075245651        0.4123516787       -1.8701105012
 H         -7.4355542960       -0.9885026592       -2.9185989684
 H         -5.8691476848       -0.1510476564       -3.0316269417
 H         -5.4610423114       -3.9215486310        2.2566324929
 H         -5.8865430542       -5.0568803619        0.9531778684
 H         -4.1933560908       -4.5459533747        1.1623418680
 H         -3.6269315761       -2.4425900208        2.1109447952
 H         -2.5668050631       -0.2642788367        2.1420413572
 H         -3.3280971120        2.6534641023       -1.5320317264
 H         -1.7423353202        3.0557898369       -0.8849508259
 H         -2.5730351642        0.2946689533       -1.9137377386
 H         -1.6769791458        1.5178873170       -2.8186918065
 H         -1.0021783843        1.0337396500        0.9349504789
 H          0.2034335260        1.3858382235       -1.1349992011
 H          2.6498091288        0.1178002504        0.6592924917
 H          2.9865106605        1.8415973185        0.2041046802
 H          3.2675748319        1.1326811456       -2.2082627079
 H          2.9212442134       -0.5837638440       -1.7336749295
 H          5.1410059140        2.4174334102       -1.0423028691
 H          7.5250336350        2.0587911963       -0.7058757682
 H          9.5413416290        1.5013582792        0.5293538658
 H          9.5746720699        1.0298905408       -1.1975281699
 H         10.5625132696        0.1431593814       -0.0091551714
 H          6.8659525115       -4.1166491417        1.1463400184
 H          5.4643189537       -3.1235607837        1.6197723239
 H          5.6447113884       -3.6750315363       -0.0732752243
 H          4.3619720445       -1.6796526022        0.0945479139
 H         -1.0177983577       -1.9898779775       -2.3552427387
 H         -2.0210014698       -1.5856739135       -0.9452681299
 H         -0.5311481650       -2.5396708636       -0.7455877299
 H         -4.8541957572        2.8364043160        0.2694936422
 H         -3.6736386126        2.6586543929        3.0674391975
 H         -4.8940249985        1.5629155966        2.4019774193
 H         -5.2729886023        3.2675266627        2.6427674859
 H         -2.5853078269        4.4304050078        1.5263277240
 H         -3.2522389367        4.6663868167       -0.0977358490
 H         -4.2367341875        5.0049139444        1.3170401637
 H         -0.5923444064        2.4590733157        2.7362231436
