25
 energy: -42.094381346230 gnorm: 0.009483353356 xtb: 6.6.1 (8d0f1dd)
C            3.15307387684468        1.41461132000820        0.01633038013868
N            2.34826438521671        0.27577378648758       -0.00566623975663
C            2.57893941793340       -2.30455727650785       -0.00944681938119
N            1.29537795476970       -2.22897336765225       -0.00811224832440
C            0.46917598884740       -1.10953576721793       -0.00417335186099
C            1.06153422174443        0.16943482063668        0.00152626006751
C            0.13443895232911        1.35603443345224        0.00472545309713
O            0.54672085356501        2.49212832439706        0.01174960346555
N           -1.20043036080595        1.05387557370678       -0.00624558709192
C           -2.16064030675354        2.15242243505883       -0.00834872531642
C           -1.76650839347136       -0.20734460233944       -0.00622637311498
O           -2.95448553737977       -0.37628117383543       -0.00811382625750
N           -0.87475649164845       -1.29004910544717       -0.00317779882059
C           -1.46911922244637       -2.61498067045424        0.00282902369116
H            3.70970993138191        1.45134381522148        0.95893734388857
H            3.88504614298794        1.35844013718843       -0.79456195237407
H            2.55593916487834        2.32903164242739       -0.08171977451131
H            3.21511311990397       -1.42283339995486       -0.00263241840319
H           -1.61504296081221        3.09228004507750       -0.00113080589539
H           -2.78849413152431        2.08478837075636       -0.89652980456421
H           -2.80039619742180        2.07816969582898        0.87079569911866
H           -1.19067646483890       -3.16699136441108        0.90225052580852
H           -1.20116327126737       -3.17137178189850       -0.89718242849823
H           -2.55195344351252       -2.47832059041131        0.00831399751788
H            0.78076428557995       -3.11885675851746       -0.01301851472260
