  25
        -42.10805425
 C          3.1513017975        1.0801207102        0.0137184759
 N          2.2840246295        0.0748254243        0.0126124200
 C          2.5460927585       -1.2533226480        0.0178300544
 N          1.3808611481       -1.9555432263        0.0151376830
 C          0.3499770820       -1.0675347033        0.0104217563
 C          0.8965029751        0.2045779030        0.0068160982
 C          0.0717681503        1.3914695669       -0.0002849431
 O          0.4713442400        2.5307865667       -0.0171111217
 N         -1.2856390300        1.0626103453        0.0149281535
 C         -2.2402200972        2.1624492709        0.0302246810
 C         -1.8548562412       -0.1975106244        0.0108016850
 O         -3.0414233718       -0.3674674141        0.0135217677
 N         -0.9719664746       -1.3002247396        0.0038163571
 C         -1.5224751458       -2.6408198624       -0.0058694777
 H          4.2026917741        0.8661705546        0.0333358647
 H          5.2333048238        2.2326082289       -1.7565293723
 H          2.7683348335        2.0859386904        0.0012693993
 H          3.5231569147       -1.6895149131        0.0317939044
 H         -1.6825518822        3.0954507407       -0.0043138879
 H         -2.9075334971        2.0857545216       -0.8280614566
 H         -2.8430134257        2.1161920941        0.9376150224
 H         -1.2019180527       -3.1924334874        0.8782298216
 H         -1.2207605412       -3.1706061240       -0.9097088286
 H         -2.6078112422       -2.5487981693        0.0061516222
 H          1.3160068717       -2.9628519942        0.0242052090
