72
 energy: 40.080935222562 xtb: 6.6.1 (8d0f1dd)
N           -2.00159518196501        3.10534288294522        2.46948624868886
C           -1.91714920777061        2.31822583439663        1.48546117108282
C           -2.96641573063006        2.15290808439909        0.41334986711549
C           -3.52692074375054        0.73937649903286        0.46004177906872
C           -4.39099556140221        0.28515180595973       -0.54086592166605
C           -4.92499826106873       -0.99144610764921       -0.52095588276509
O           -5.75695351902847       -1.51282093021810       -1.46265440258793
C           -6.22769534982742       -0.66957211032338       -2.48015125694610
C           -4.58410744052357       -1.86965988912240        0.53339957583820
O           -5.14339180330841       -3.11492009911951        0.46656990486072
C           -4.88564768348663       -4.01563695936104        1.51263970196607
C           -3.73598555250767       -1.41843512605839        1.52887279754991
C           -3.22083843638094       -0.12732931312132        1.49204953036168
C           -2.27223236610156        2.38816790789788       -0.95227047493222
C           -1.40977171112332        1.23052858027817       -1.48339123789696
C           -0.16215274891414        0.91804277520416       -0.69773706537934
N            0.31056408371536       -0.28896807279563       -0.40051294417439
C            1.51158401338424       -0.55860489818072        0.09976432898002
C            3.82457581109798       -0.67028448379997       -1.89625240308177
C            5.04689530649413       -0.53939508490094       -1.29782363594221
C            5.79164387508163        0.62933047061194       -1.47930716597764
C            7.01918851463979        0.75475122787214       -0.89877205758457
C            7.53573820335469       -0.25720400594006       -0.10118951546486
O            8.73697022921126       -0.22451585872854        0.54071103512734
C            9.51057036291718        0.93790821912949        0.43980010919715
C            6.79661604656868       -1.45182839951714        0.07159347473138
O            7.41296857635819       -2.41017528278010        0.82493067601798
C            6.72424774449697       -3.61170524252952        1.04713372082935
C            5.57629066968189       -1.58393540818429       -0.51314254319472
C           -0.54117220331121       -1.44859080385932       -0.59972104365097
C           -4.14702989636384        3.14387354344471        0.57316190911211
C           -4.88285317092163        2.89694256275431        1.88816614610678
C           -3.70389217003631        4.60229780186563        0.50116798005688
H           -4.64046580785268        0.94553728004122       -1.35519851760352
H           -6.74517345913410        0.20488029986633       -2.07180724104103
H           -6.92991822658358       -1.26593958308365       -3.06213298700799
H           -5.41455721441545       -0.33239449619656       -3.13006920869618
H           -5.23916727193893       -3.62469320181547        2.47323952016529
H           -5.43832584998680       -4.92273975985557        1.26768939130835
H           -3.81928307433907       -4.25270679123535        1.59800358236346
H           -3.47212107088483       -2.05859817233768        2.35646159403521
H           -2.58477433574654        0.20428847494146        2.29702767128062
H           -3.04971167988453        2.59346217590514       -1.69949970978773
H           -1.64627253811887        3.27748154045502       -0.87740102532835
H           -2.02519018881340        0.33772064497483       -1.54377898810017
H           -1.16098369664256        1.52065186631477       -2.52529389780990
H           -1.03207235491194        1.66904272958507        1.26140724639215
H            0.53141459207887        1.73276937429797       -0.54581184947804
H            1.71277639869753       -1.53596346471999        0.48925556824596
H            2.07891779061152        0.27043948326654        0.52381881223639
H            3.52129062414410        0.07982774827380       -2.59467840553764
H            3.33293747669309       -1.62230423592848       -1.95378103151691
H            5.38134962855014        1.41894434615155       -2.08588526466626
H            7.58155388655536        1.65206222823770       -1.08013459413940
H            9.00457612992974        1.81460992140772        0.85706323480013
H            9.80227596975430        1.14812941712098       -0.59560883077034
H           10.40305841662267        0.73908003550618        1.02559946782339
H            7.37263824523262       -4.19754425358573        1.69885586440410
H            5.76299712518415       -3.44618385752334        1.54273110813432
H            6.55581384719796       -4.15956813891637        0.11205611909000
H            4.99587475266802       -2.48629908647733       -0.41235003580320
H           -0.67168162589809       -1.63522521925892       -1.66496327251819
H           -1.52060338807603       -1.25954616332252       -0.13314982624232
H           -0.04742262209337       -2.33289467069961       -0.15843917684616
H           -4.84319260837592        2.96460893491829       -0.25164059039870
H           -4.21326600077564        3.09861668174994        2.71112443668370
H           -5.22896561901641        1.86799982007032        1.95321195936855
H           -5.74070607168067        3.56135825180293        1.97749769525281
H           -2.98519326776295        4.79364222958661        1.28507559855269
H           -3.26322805621734        4.83715588664591       -0.46388270028178
H           -4.56068691479211        5.25847221079424        0.65459168411673
H           -1.17029371969302        3.08921658316997        3.05972666428648
