72
 energy: 39.129585048024 xtb: 6.6.1 (8d0f1dd)
N           -2.06881645003633        3.16658698584375        2.45607619629115
C           -2.01439676652886        2.31475500763343        1.53860588946968
C           -3.04560934870158        2.17116202721286        0.45301264119157
C           -3.60319717061555        0.75926691616368        0.50221707190932
C           -4.41510240183062        0.29240604377563       -0.53401520896039
C           -4.93850785015690       -0.98561049325844       -0.51563210479783
O           -5.72159826324355       -1.52246287121939       -1.49206995824491
C           -6.16170803343312       -0.69380326435331       -2.53787191089843
C           -4.64304929288896       -1.85114892384688        0.56343357434674
O           -5.17792957044293       -3.09882966975441        0.48176569692176
C           -4.96136065030347       -3.99050898614738        1.54742737918388
C           -3.84983487843375       -1.37904227519208        1.59219468583914
C           -3.34154105845949       -0.08459635672404        1.56474533672733
C           -2.29503982767887        2.41249343987662       -0.88070085281909
C           -1.45184476826427        1.23290817645431       -1.40496998933269
C           -0.25531294971175        0.87949496439365       -0.58579857273113
N            0.12123808786958       -0.35057533835199       -0.27443442214722
C            1.24478097885479       -0.65364300365017        0.34363759882504
C            4.10207337464532       -0.71178288199048       -2.15484581070758
C            5.28762002110652       -0.58068519208086       -1.49874021902216
C            6.04344485796107        0.59512755929248       -1.63976743419829
C            7.23941520532133        0.72795729047369       -1.00112642337451
C            7.71726860381343       -0.26944937628116       -0.16158384954307
O            8.88062508292875       -0.21992932930386        0.53977335892216
C            9.66269213729575        0.94074343139829        0.48226949540550
C            6.97259438325326       -1.46860681869701       -0.00850778209799
O            7.56126743503602       -2.41000192789812        0.77865462128553
C            6.86556020870659       -3.61041105427039        1.00839136301545
C            5.78613661605409       -1.61084270464586       -0.65928933835323
C           -0.73322398966447       -1.47137879839535       -0.58634842964851
C           -4.23192686420585        3.16673341630378        0.57532662483330
C           -5.00899757047153        2.93824981819907        1.86990870059197
C           -3.80580119346860        4.62968971335581        0.48750991929964
H           -4.63891349809642        0.94481457741435       -1.36314911488028
H           -6.71174005076882        0.17690401680653       -2.16563119027526
H           -6.83037489730803       -1.31019338644541       -3.13628590371677
H           -5.32648001546724       -0.35723118651759       -3.15888173844475
H           -5.36947878025045       -3.60140151574519        2.48429220472134
H           -5.49027272165281       -4.90217836008200        1.27420864682349
H           -3.89774219833079       -4.21213133004746        1.68580384058992
H           -3.62132334326999       -2.00447488012175        2.43936128995796
H           -2.74710951620585        0.25436689550498        2.39842109292129
H           -3.03412037386552        2.66165164816243       -1.64719201633236
H           -1.65273746578432        3.28601799489118       -0.76586729735742
H           -2.10501832681798        0.36953549175550       -1.52395377399914
H           -1.13073354583528        1.54330578311902       -2.41320538183179
H           -1.13832402833011        1.67294646460271        1.33789286628848
H            0.44632241462404        1.67370038577097       -0.37774173452133
H            1.41084583349456       -1.64130823451819        0.70070988550883
H            1.85602856589142        0.14911518821497        0.69855143193491
H            3.76281136376099        0.05613119635283       -2.82228885383328
H            3.57096302810284       -1.64706338734499       -2.12418789317390
H            5.66000517442677        1.38039924008518       -2.26747685807201
H            7.81397266793348        1.62009497825364       -1.17523916012418
H            9.13197748777478        1.81944002759550        0.86057514960928
H           10.01699433667496        1.14284501010736       -0.53308884923613
H           10.51064336058832        0.73581420691608        1.13269830623043
H            7.48088425570164       -4.16514431914784        1.71529687486479
H            5.87839774183897       -3.43234974408214        1.44634398135534
H            6.74762636727462       -4.19215417339112        0.08721079353175
H            5.21073232141629       -2.51763428742712       -0.55839507011951
H           -0.82563776673031       -1.58368519196443       -1.66628442911120
H           -1.71932207193729       -1.30167768596610       -0.13963906087442
H           -0.26655220293116       -2.37735771297572       -0.18330544432842
H           -4.90603814359946        2.96044543811008       -0.26395431816549
H           -4.37864278865548        3.16285078193622        2.72212151674260
H           -5.35021797132830        1.90847150807976        1.94424884645781
H           -5.87816223078956        3.59178126212674        1.90391847520017
H           -3.11416278010159        4.86073961385091        1.28934295628226
H           -3.33936040195432        4.85772341262943       -0.46731279810467
H           -4.68097967176681        5.26929149229383        0.59401307783852
H           -1.32872777510173        3.19339249523864        3.15396389991393
