72
 energy: 36.822570527423 xtb: 6.6.1 (8d0f1dd)
N           -2.19204073833811        3.23268386831634        2.48985041581245
C           -2.08902792225624        2.37736487165479        1.57782662736761
C           -3.10402055187985        2.19901245495949        0.47949605964973
C           -3.65569847284207        0.78449602393101        0.53049318081977
C           -4.43260534107960        0.30036336866728       -0.52528748332090
C           -4.94363644668531       -0.98391384677568       -0.51623081305840
O           -5.70434921215744       -1.53287851178890       -1.50508138860933
C           -6.11354536429505       -0.71984990538179       -2.57516632854753
C           -4.67712691401331       -1.83423628908450        0.58134572983609
O           -5.19693896511323       -3.09036066835872        0.49207993995235
C           -5.01765835903873       -3.96880532988376        1.57359944627638
C           -3.93296277859408       -1.34379202726819        1.63821269986285
C           -3.43241962407473       -0.04683415359947        1.61258924982300
C           -2.33303075707900        2.43641817877638       -0.85046776201286
C           -1.50308383320584        1.25289995758474       -1.38394643996047
C           -0.34846947010316        0.88412779356650       -0.52016341729766
N           -0.02501427190393       -0.34094731858340       -0.13030197458610
C            1.02348156633596       -0.62244274899729        0.63177815213279
C            4.33059719716074       -0.78251108564798       -2.39288888636311
C            5.49139268753220       -0.61742601779565       -1.67422222454332
C            6.26536771563752        0.56894873926204       -1.77186162438788
C            7.42148428383944        0.72981431730030       -1.04785267745651
C            7.86982012943307       -0.26970203141423       -0.18814004499349
O            8.99286946111817       -0.21152148695984        0.57768313308991
C            9.79000426648618        0.94249899788367        0.53166385357115
C            7.11871855949431       -1.47203017867687       -0.06926367647128
O            7.64573047548078       -2.38338855365752        0.79993998275956
C            6.96398102154651       -3.59449159144467        0.99604685268667
C            5.96980736142073       -1.63475648113453       -0.79517315194350
C           -0.86355859734799       -1.45756514545572       -0.53620572027418
C           -4.30143820027675        3.18718005816423        0.57337560613310
C           -5.10588912000797        2.97350420276736        1.85464914333485
C           -3.88540703096155        4.65342407715442        0.47112574168125
H           -4.63931085568998        0.94613000708101       -1.36339205045812
H           -6.68311291458692        0.14880888941333       -2.22832966115937
H           -6.75722935324359       -1.34924128154880       -3.18801062437141
H           -5.26428313803931       -0.38064942737832       -3.17867808298382
H           -5.46862307882870       -3.57760444735962        2.49170978229737
H           -5.52521753976794       -4.88879682132536        1.28773404716025
H           -3.95816116912065       -4.18245028783928        1.75283372387503
H           -3.73364904845323       -1.96012873156642        2.50042340693138
H           -2.87167307303219        0.30587479394032        2.46392074252701
H           -3.05411044494715        2.70618513881689       -1.62463852492766
H           -1.66889307374097        3.29132530154302       -0.71017449707033
H           -2.16195042362083        0.40225631177172       -1.54477413845514
H           -1.12606166743379        1.56761496166665       -2.36819937672047
H           -1.22943321622647        1.70324212067831        1.46005222290207
H            0.34928405479131        1.66491272699768       -0.26221676735955
H            1.24440387723302       -1.63333690297850        0.89742667510276
H            1.67643559502959        0.16794380436475        0.94344154415059
H            3.96987342059081       -0.01349564576148       -3.05068774315766
H            3.75140342975485       -1.68488781893109       -2.31883242474365
H            5.93051507438636        1.35394641187364       -2.43293745694767
H            7.98471954122158        1.64499590363055       -1.15105683236041
H            9.24163747358266        1.82874601423083        0.86934096571164
H           10.18695902612861        1.12359709435545       -0.47307574916628
H           10.61643288213538        0.74961347489501        1.21453895164759
H            7.54961024982534       -4.14201243495039        1.73350697963714
H            5.95299826799566       -3.43168051297118        1.38532972739704
H            6.90582193323763       -4.18139044455955        0.07277268621510
H            5.39127577325482       -2.54207695906944       -0.72130904791747
H           -0.91807487859481       -1.51254013394329       -1.62354669908816
H           -1.87091026392753       -1.34731838226447       -0.13342447316701
H           -0.43892034227230       -2.38657119046325       -0.16309777579042
H           -4.95866943786979        2.96253076577098       -0.27591096045635
H           -4.49620408511405        3.21995015737895        2.71755678630458
H           -5.43893022945376        1.94167951608753        1.93970286362912
H           -5.98183501479217        3.61833774096190        1.84985781922261
H           -3.21499687715226        4.90642708355973        1.28570131540320
H           -3.39548585852552        4.86929901374627       -0.47463355219590
H           -4.76982309968757        5.28283047174090        0.54241390523586
H           -1.41924507647055        3.27194101730432        3.15164642031958
