72
 energy: -6.416785762919 xtb: 6.6.1 (8d0f1dd)
N           -1.52106788282567        2.79957793300340        2.25007445223414
C           -1.57094149275569        2.15726860469632        1.17206115369441
C           -2.75846883210221        2.06514720801757        0.25559005154546
C           -3.32848664329820        0.65467171490509        0.33356519111951
C           -4.30883206153367        0.24849183635423       -0.57418745138944
C           -4.85447478671235       -1.01999888606376       -0.52933966799669
O           -5.81665347851598       -1.49237842739741       -1.37148844822537
C           -6.38414678905180       -0.61387641115351       -2.30834032824088
C           -4.41116355922380       -1.93737300017767        0.44902733861739
O           -5.00271193180303       -3.16495862698184        0.41291348066640
C           -4.67951784254752       -4.09408298240631        1.41503344584481
C           -3.44388286382909       -1.53367627851532        1.34894182514024
C           -2.90978470867030       -0.25092759695372        1.29081641332533
C           -2.19879216720717        2.30566326077974       -1.17176529556708
C           -1.26441512860037        1.18728911448136       -1.66493901783314
C            0.00081001652829        1.12104443966254       -0.87789630214402
N            0.62720079541956       -0.07273489006780       -0.55754465040479
C            2.00435225465379       -0.08483699383768       -0.17018286686327
C            2.97644080027595       -0.54885539569117       -1.29964412092134
C            4.40146119232114       -0.43913010957257       -0.86450266755853
C            5.12293435591997        0.72210692414236       -1.07319340458181
C            6.43070808515380        0.83517217054933       -0.62407128526288
C            7.03494803458141       -0.21284182094937        0.04622816285212
O            8.30777363450145       -0.21224339234648        0.53097825491237
C            9.10018917558872        0.92885070951277        0.32829427583539
C            6.30731287210764       -1.40434274208971        0.26445263478750
O            6.98512910560908       -2.38469134466162        0.92567233070028
C            6.34488788546707       -3.61423094626948        1.14554046035944
C            5.00659318213182       -1.49910390734099       -0.18925412872055
C           -0.08089735338588       -1.31969893289153       -0.61912680986472
C           -3.88760153791013        3.08110322452775        0.58179542724089
C           -4.52259862803878        2.78408684099148        1.93883180422499
C           -3.41584842609354        4.53319711714748        0.54558955417243
H           -4.65699307534432        0.94491845513546       -1.31911325410981
H           -6.84125907478254        0.25497959485248       -1.82308547181855
H           -7.15682074385474       -1.19053837217836       -2.81460859684558
H           -5.64873950050455       -0.27305263504155       -3.04521394385685
H           -4.90859843773065       -3.70744903188151        2.41383480525818
H           -5.30189565497293       -4.96522435215422        1.21533209646581
H           -3.62461083849646       -4.38678405914423        1.37295590470619
H           -3.09816440786393       -2.20663717472478        2.11747392191430
H           -2.17605061022682        0.03808413784189        2.02695802415842
H           -3.02868192597124        2.39886974032644       -1.87423834516674
H           -1.64967059472146        3.24813775638497       -1.18134198330112
H           -1.80749229311248        0.24468151737557       -1.62439978950220
H           -1.02354931030116        1.38840523645435       -2.71917912448672
H           -0.70226156801466        1.64806740686907        0.68156264822166
H            0.66382179769348        1.96763286521996       -0.95053204635419
H            2.11517502427479       -0.73710765533384        0.70603578640044
H            2.28258544722741        0.93016190279487        0.13402203270494
H            2.81887373140812        0.06985716970450       -2.18554527975506
H            2.72885288058361       -1.58097540895041       -1.54993788152606
H            4.67402534816370        1.55210735729987       -1.59838233345434
H            6.97126856072685        1.75041399110549       -0.80716082059547
H            8.67613893303904        1.81111028592271        0.81968257218505
H            9.24336316328256        1.14046302830143       -0.73680320243477
H           10.06300049071352        0.69584192143863        0.77901608476682
H            7.07749741381116       -4.23573202955846        1.65849557546260
H            5.45932463276911       -3.50267836424019        1.78022704200683
H            6.05855237812529       -4.09635358864316        0.20447652709434
H            4.44205670745735       -2.40560071785080       -0.03502530245440
H           -0.25394656027836       -1.63193817572893       -1.65500041719659
H           -1.05008809479345       -1.24518386264295       -0.11299619915661
H            0.51843759832320       -2.07955568087962       -0.12114118399930
H           -4.65724013838857        2.95798916208238       -0.18810403712821
H           -3.78834889135385        2.91702089719954        2.72496313243921
H           -4.89984153533952        1.76504956366060        1.97643201818144
H           -5.35177027260922        3.46540731647237        2.11650515410811
H           -2.62697736378561        4.68931337579474        1.27378154433681
H           -3.05509497202874        4.81560315703637       -0.44010214962755
H           -4.24708723919001        5.18880925318462        0.79684795170547
H           -0.63391526127892        2.79025591139118        2.74948772924642
