72
 energy: 8.591276894208 xtb: 6.6.1 (8d0f1dd)
N           -1.69192176195945        2.94512465357180        2.31596506554796
C           -1.69574270707893        2.20552533865411        1.30048393793715
C           -2.83337485593879        2.09658825483776        0.31848060596319
C           -3.40344429152480        0.68710215331619        0.38098256169116
C           -4.34129976651162        0.26130668274151       -0.56197077077520
C           -4.88535240487089       -1.00950843054389       -0.52467786078311
O           -5.79916746248465       -1.50597348155149       -1.41128210231588
C           -6.32632418378235       -0.63539885871680       -2.37609550191075
C           -4.47971533002977       -1.91236160488510        0.48216756358595
O           -5.06090581834990       -3.14900815674093        0.43242229119750
C           -4.75850319137403       -4.06364969203753        1.45342372072959
C           -3.55592923451471       -1.48912976780606        1.41979818362490
C           -3.02838253573022       -0.20375753992727        1.36883250360613
C           -2.22071110569827        2.33774664466103       -1.08492833686780
C           -1.30628766295445        1.21412272373978       -1.59512835135841
C           -0.05475343681438        1.04450610528292       -0.76162204141352
N            0.57776311456323       -0.22001327851926       -0.52411371845476
C            1.99521592813634       -0.35140466548557       -0.22678984230530
C            3.20300984477491       -0.59697273293598       -1.42090601443278
C            4.62400944772877       -0.47000779579023       -0.99853024332057
C            5.36219740612636        0.67778863471442       -1.22871865122303
C            6.65155662900073        0.79776072398457       -0.73484735994921
C            7.22522588764829       -0.23167504095128       -0.01233209124505
O            8.46982136499606       -0.21546171512412        0.54211004960888
C            9.25695334407279        0.93297524480471        0.37232724025564
C            6.49624983468858       -1.42281113013120        0.18633089240061
O            7.14937729019660       -2.39372698905530        0.88881392382968
C            6.48997023936640       -3.61206594910579        1.10829337972614
C            5.21903150995395       -1.52763927802483       -0.31615511474880
C           -0.23918992459519       -1.39933723184189       -0.62272494171523
C           -3.98665415984882        3.10360028340428        0.57696632148510
C           -4.66158159013942        2.82833363883792        1.91854906051575
C           -3.52732799925901        4.55806385683709        0.52843792105430
H           -4.65043443749939        0.94376802351642       -1.33651202535033
H           -6.80469503523981        0.23610504233686       -1.91721576475565
H           -7.07374582813333       -1.21548241837515       -2.91516764884845
H           -5.55772083271139       -0.29391394503634       -3.07696925588524
H           -5.03565316952757       -3.67310708105604        2.43860751514009
H           -5.35272218026900       -4.95145293547574        1.23909183449579
H           -3.69589031815867       -4.33133932491463        1.46081429048184
H           -3.24032667229984       -2.14891337188067        2.21223385712462
H           -2.32992289765312        0.10396881540907        2.13029360158003
H           -3.03506690784184        2.47054630577736       -1.80522440087332
H           -1.64264837095660        3.26097181174665       -1.06398376992764
H           -1.88173091069002        0.29146194249024       -1.59141931068524
H           -1.10899863158264        1.45046630935498       -2.66776011565743
H           -0.81657256555375        1.62444630704242        0.91076468969452
H            0.65446980433610        1.85535064830882       -0.80423447178397
H            2.08933036010952       -1.10858615932176        0.56324979559743
H            2.21961940296309        0.62421550672276        0.26113432949643
H            3.08369413941210        0.08393801306379       -2.26827110138260
H            2.97037216449058       -1.60847732054990       -1.73958415940613
H            4.93826063519171        1.50031453376515       -1.78542903037572
H            7.20257029339452        1.70869935541371       -0.91140602544303
H            8.80192885042833        1.81519974604121        0.83443216505762
H            9.45801809329511        1.14008808276752       -0.68437207925970
H           10.19602836481961        0.71607129580480        0.87367578589472
H            7.18936461091976       -4.22319102611487        1.67820837754299
H            5.57126428526536       -3.47712739605502        1.68715219562838
H            6.25019933877299       -4.11739840956793        0.16613588380647
H            4.65073163676289       -2.43374579063887       -0.18071582181614
H           -0.41701141394458       -1.66983919410124       -1.66920916693549
H           -1.21514289858457       -1.24754538785487       -0.13409775561140
H            0.30653377232456       -2.20662733190772       -0.13232361263011
H           -4.72764392751483        2.96067828196977       -0.21551750053965
H           -3.94761387247417        2.98842118329609        2.71405553354681
H           -5.02755779671225        1.80561227628474        1.96828021340881
H           -5.50077677731353        3.50545558909219        2.06737333687413
H           -2.76412239523242        4.71831905164854        1.27827716762530
H           -3.13619570398545        4.82071762994712       -0.45059403554483
H           -4.36666046228898        5.21748217130555        0.74518731740584
H           -0.83776788800889        2.91056335470100        2.86099683710277
