72
 energy: 37.206292169761 xtb: 6.6.1 (8d0f1dd)
N           -2.20803947495854        3.24149750963759        2.48376722759441
C           -2.08740262919589        2.37403341038656        1.58750898172840
C           -3.10313850449210        2.19525128585939        0.48729092553692
C           -3.66096068828213        0.78412222541860        0.53570444578031
C           -4.43462492759588        0.30199494207056       -0.52304822320360
C           -4.94408989951099       -0.98343125509077       -0.51670405601297
O           -5.70592015539879       -1.53075101232033       -1.50725190626915
C           -6.10739649011609       -0.71881581541460       -2.58056952733566
C           -4.68192797833726       -1.83155943458232        0.58228121516005
O           -5.20261407294502       -3.08917233136667        0.49392418230211
C           -5.02361395488736       -3.96593778780147        1.57533813053241
C           -3.94179102502694       -1.34393664271791        1.64326027647670
C           -3.44177460555324       -0.04730774733100        1.61833313225737
C           -2.32518176937403        2.43347971296314       -0.83887634434466
C           -1.49592285679343        1.25114839768845       -1.37264059909432
C           -0.34220361264311        0.87727387881450       -0.51252953521816
N           -0.01901389591088       -0.35384009670561       -0.14979531454185
C            1.05043110113915       -0.65164435905853        0.57489286424282
C            4.31874615942986       -0.76132791344178       -2.36756038364768
C            5.48084721186744       -0.60953636722977       -1.65151537365797
C            6.24549585861456        0.57891222716361       -1.75325060509290
C            7.40906784996122        0.73183737408050       -1.04746167693736
C            7.85574195112334       -0.26821763470868       -0.18634895808304
O            8.99678096330163       -0.21879463165677        0.55640916623705
C            9.78594901986457        0.93861418588636        0.52210324865673
C            7.10671289080352       -1.47003823583081       -0.05918081691770
O            7.65787560944154       -2.39224440596473        0.78582439963825
C            6.97304775520567       -3.59978582077187        0.98994644789646
C            5.95381527202331       -1.63292724613151       -0.77531203763942
C           -0.86403519419816       -1.46354566597023       -0.55187559681999
C           -4.29982167660396        3.18539444129274        0.57583338590848
C           -5.11386164240011        2.97508413383769        1.85190424708454
C           -3.88900698900054        4.65324248862796        0.47066057680619
H           -4.63623332786395        0.94562436818765       -1.36365141405221
H           -6.67844894028576        0.15008241742938       -2.23830844388575
H           -6.74904397733685       -1.34631346353924       -3.19742015195718
H           -5.25622457792908       -0.37994934791583       -3.18166303214411
H           -5.47552306628237       -3.57710899366392        2.49312308127126
H           -5.52739973034916       -4.88816361153973        1.29037607479003
H           -3.96495303991613       -4.17790560821332        1.75948353625749
H           -3.74530014747939       -1.96029596865678        2.50610062717603
H           -2.87977928895784        0.30665500311207        2.46818993966222
H           -3.04077672674655        2.70676229263276       -1.61723092635552
H           -1.65969925163385        3.28627301401221       -0.69219422107958
H           -2.15550068563263        0.40123315624387       -1.53384134851384
H           -1.11505880987793        1.56829748257825       -2.35387598815035
H           -1.23609523172067        1.68732235449831        1.49508712628859
H            0.36268442937052        1.64977536527865       -0.25282743284465
H            1.21663985928079       -1.64852547290571        0.92173630099852
H            1.69509276502734        0.14059279448560        0.89272310335213
H            3.95282476509397        0.01639746355879       -3.01060582636949
H            3.74046463898849       -1.65988647898192       -2.28930182529769
H            5.88616320140883        1.35847884474720       -2.40508412090563
H            7.98764513748467        1.63421749563763       -1.17617025803119
H            9.23897200886685        1.82410070954765        0.86273860658288
H           10.18664514265388        1.12753938526132       -0.47875386208939
H           10.61030354322180        0.74503069471467        1.20716625471456
H            7.55190530639340       -4.14290244808938        1.73559307986808
H            5.96237652667918       -3.42806946563287        1.37589853504101
H            6.90768336768952       -4.19695294471916        0.07339699385859
H            5.37177240432381       -2.53761588861660       -0.69111351740846
H           -0.92750847653346       -1.52723667646451       -1.63833166407819
H           -1.86705338518713       -1.34378447126047       -0.14043136330331
H           -0.42457246415675       -2.38529370251536       -0.17620007755687
H           -4.95418450927376        2.95807221943891       -0.27541219133164
H           -4.51363385903943        3.22445575384496        2.71986980043369
H           -5.45054837395498        1.94470755083114        1.93775603751697
H           -5.98913950228967        3.62062414115239        1.83839972011205
H           -3.22369120455611        4.91176734965444        1.28670892351170
H           -3.39961886570491        4.86993579616026       -0.47453113559016
H           -4.77700081140350        5.27816326570351        0.53821546384762
H           -1.44250343731222        3.29803840609249        3.15088570220257
