72
 energy: -4.046573628794 xtb: 6.6.1 (8d0f1dd)
N           -1.58626183383044        2.86190793326057        2.27490326038090
C           -1.61939011036616        2.17355692718472        1.22487031286001
C           -2.78749838032006        2.07736850810876        0.28111131246780
C           -3.35835951755190        0.66790588888144        0.35287975372598
C           -4.32207818368851        0.25365173989884       -0.56855324657750
C           -4.86705922410157       -1.01581018641282       -0.52647280776973
O           -5.81038926818081       -1.49823453644840       -1.38678860607825
C           -6.36123828479479       -0.62265019289884       -2.33503186843782
C           -4.43846100873582       -1.92754440922916        0.46262719438745
O           -5.02580953470098       -3.15915694702539        0.42023575920736
C           -4.71115570130691       -4.08203574776128        1.43028784090350
C           -3.48838968607237       -1.51565659014927        1.37766878629958
C           -2.95703908525722       -0.23187593701840        1.32240777073488
C           -2.20698356674255        2.31848317882744       -1.13731234419834
C           -1.27743098558387        1.20186411059540       -1.63996363731353
C           -0.01682967597154        1.09281097109127       -0.82941291147729
N            0.61120754697575       -0.13321133578348       -0.54956448051840
C            2.00740913088699       -0.19234523796927       -0.19801891360210
C            3.06370123175679       -0.56523211355388       -1.34522266480782
C            4.49003246560157       -0.45109416640901       -0.91754578239912
C            5.21876719150939        0.70384294942715       -1.13526061147988
C            6.51914737814276        0.82010011455200       -0.66698932583606
C            7.11119669879923       -0.22074828752455        0.02399252447962
O            8.37279236609593       -0.21321283331198        0.53705753484454
C            9.16228021263067        0.93138211678429        0.34582394771917
C            6.38306918096121       -1.41222894294762        0.23354088500105
O            7.05084155481742       -2.38855542451767        0.91264010764489
C            6.40273658020133       -3.61374700567741        1.13096562059044
C            5.09151880453535       -1.51085900757812       -0.24090984733379
C           -0.14321055530847       -1.35287782225024       -0.62191874666901
C           -3.92706909422078        3.08994392723919        0.57938544732057
C           -4.57794808547430        2.80161346133969        1.93036584333752
C           -3.46013649051043        4.54275447593984        0.53838079625367
H           -4.65457809466370        0.94448386373552       -1.32566201154326
H           -6.82614516078723        0.24751553118492       -1.85995822271296
H           -7.12431183168907       -1.20027442752998       -2.85449661185964
H           -5.61238112286578       -0.28136750426809       -3.05761015012019
H           -4.95919140574848       -3.69313884103190        2.42372999379480
H           -5.32263766353379       -4.95991850324092        1.22526306239483
H           -3.65284803167870       -4.36482937135542        1.40806968360775
H           -3.15461994679409       -2.18342721663930        2.15573670529714
H           -2.23711056998402        0.06519220655419        2.06826123473385
H           -3.03210926387791        2.42716007625584       -1.84607458209080
H           -1.64721567157494        3.25353688198091       -1.13366379310686
H           -1.83440671495747        0.26749609555699       -1.61391016814469
H           -1.05739860951732        1.41357352515538       -2.70521683359859
H           -0.74574739882664        1.63483553686277        0.77217039603448
H            0.67994977299861        1.91074789273620       -0.90880380333340
H            2.11087529447449       -0.88570456523876        0.64908323784260
H            2.25202988139929        0.81192241898973        0.18516883129532
H            2.92558049335337        0.08327475244529       -2.21418374518562
H            2.82548205537709       -1.59047690048647       -1.62813413199558
H            4.77990700752958        1.53091671810655       -1.67293187819491
H            7.06446006805763        1.73373481612028       -0.84629676426444
H            8.72519139428412        1.81382241010738        0.82494885272708
H            9.32853540589549        1.14056243245849       -0.71640810881572
H           10.11622979609826        0.70612788565780        0.81651952583936
H            7.12154317784067       -4.23218044225320        1.66715810871325
H            5.50304537030858       -3.49252494234588        1.74263719402548
H            6.13526279200008       -4.10429608802091        0.18863930811715
H            4.52547202182695       -2.41701406173493       -0.09349003789973
H           -0.31818777538876       -1.64807836386394       -1.66221070045032
H           -1.11648175386629       -1.24854212084351       -0.12379230454598
H            0.43517058969657       -2.13227028580262       -0.12671022885572
H           -4.68534005019141        2.95978553521471       -0.19950802688172
H           -3.85064356548626        2.94606646104404        2.71873732145642
H           -4.94988000707951        1.78075866622339        1.97322857968769
H           -5.41134143712154        3.48093560719811        2.09805697693780
H           -2.68166453372815        4.69823249948933        1.27561368028183
H           -3.08636238098236        4.81629117919771       -0.44470404924340
H           -4.29398026263594        5.20122510188463        0.77557520591069
H           -0.71468356984819        2.83625109091478        2.79621711976451
