72
 energy: 39.169867937447 xtb: 6.6.1 (8d0f1dd)
N           -1.84338499085101        3.02752014360080        2.39067457361252
C           -1.80402065735230        2.25589951558912        1.39848681876436
C           -2.89969306459002        2.12398367755750        0.36845054492499
C           -3.46581799410210        0.71270732662936        0.42060372629485
C           -4.36668209922644        0.27175664534947       -0.55267735327750
C           -4.90422118871264       -1.00344339709280       -0.52816545978616
O           -5.77759942072039       -1.51515812469497       -1.44532140715618
C           -6.27773173156052       -0.65244298785391       -2.43054839174890
C           -4.53261503031887       -1.89246931697970        0.50634428607519
O           -5.10578039122430       -3.13329830976803        0.44928197310686
C           -4.82212156809617       -4.03969602559814        1.48359867558952
C           -3.64589773979905       -1.45467295987882        1.47427831207654
C           -3.12437592779738       -0.16623810870329        1.43103201509361
C           -2.24780953148255        2.36592939878234       -1.01509559393888
C           -1.36569999396872        1.22727917106849       -1.54090517160950
C           -0.12457341183160        0.96672811964402       -0.72273429658859
N            0.43129565076056       -0.27149136057658       -0.43813852730419
C            1.72117504780539       -0.45741157669348       -0.04537113563594
C            3.54500356614345       -0.64707564331270       -1.68859121543449
C            4.83355088196983       -0.51034734053916       -1.15875501106700
C            5.57709125207494        0.65415811574736       -1.35571994824495
C            6.83346991379016        0.77668851622874       -0.81591217294442
C            7.37977180030863       -0.24514862261693       -0.05599961638599
O            8.60480918649608       -0.21957798494175        0.54480972220277
C            9.38376531959791        0.93569838880098        0.40521320989878
C            6.64543410987380       -1.43721624377880        0.12966945072332
O            7.28205429228845       -2.40323657268374        0.85865517034764
C            6.60739940903332       -3.61200679516201        1.07822634341366
C            5.39921115777005       -1.55764638117585       -0.41654884330130
C           -0.39589613520584       -1.44593299613032       -0.60946556028516
C           -4.06721308233359        3.12391491366234        0.57534540013609
C           -4.77273296224329        2.86273600379047        1.90357880832452
C           -3.61569470782643        4.58020471505978        0.51373300715484
H           -4.64686343379441        0.94463846624862       -1.34662640032587
H           -6.77450875521917        0.22025564698694       -1.99370808498487
H           -7.00376298170678       -1.23842088252992       -2.99189835152504
H           -5.48582084982427       -0.31186102583042       -3.10465063721507
H           -5.13699191793156       -3.64770269720129        2.45676519911536
H           -5.39550112782677       -4.93780170394820        1.25526134178808
H           -3.75639578463552       -4.29094439731525        1.52964464357307
H           -3.35545030670194       -2.10388769503722        2.28535853327283
H           -2.45738828168765        0.15425196811296        2.21537499990041
H           -3.04411354585654        2.53418148036978       -1.74975704376060
H           -1.64336969542991        3.27119370964122       -0.96920148488392
H           -1.95963091043077        0.32004896474207       -1.56870471473766
H           -1.16867523918844        1.50319330330521       -2.60279848396904
H           -0.92146028988317        1.63544798633694        1.09529752823368
H            0.57359498057361        1.79610206527242       -0.66478750031614
H            1.94504419873941       -1.35893374993749        0.50756389672477
H            2.15120208142619        0.43439079474301        0.38326171862010
H            3.30810009622044        0.08008283521467       -2.43686376202437
H            3.14357083690933       -1.62536511275214       -1.85049696307190
H            5.15935735411391        1.45993304437659       -1.93877702159450
H            7.39215233625493        1.68049924826630       -0.99312782885503
H            8.90308178677673        1.81617767232124        0.84444271623584
H            9.62895156546781        1.14306739739525       -0.64260091207162
H           10.30186943216472        0.73090505280920        0.94756960643914
H            7.28090717678810       -4.21209626395416        1.69010914063189
H            5.66601036968218       -3.46067621296642        1.61495629428599
H            6.40261389477155       -4.13842008697381        0.13862192547977
H            4.82278762540501       -2.46045113827292       -0.29974964553441
H           -0.54979586923131       -1.66807513151753       -1.66899786257004
H           -1.37257992033568       -1.26158559336436       -0.13530460740322
H            0.12978035738390       -2.28546068031805       -0.14431577746412
H           -4.78509067760227        2.96252730327794       -0.23439453331160
H           -4.08019636265971        3.04455582549554        2.71202327582543
H           -5.12742105374692        1.83635108175809        1.96100176391492
H           -5.62189862588047        3.53313781564685        2.02357750734177
H           -2.87516402168401        4.75515869239423        1.28128768258366
H           -3.19884735496558        4.82738849769809       -0.45865688033918
H           -4.46338919726093        5.23949410001778        0.69784537184452
H           -1.00389157376300        2.99773990591368        2.95812569205130
