72
 energy: 39.790040073381 xtb: 6.6.1 (8d0f1dd)
N           -2.01815705838296        3.10590722224079        2.47952747618490
C           -1.93496340953046        2.33300621806170        1.48797833502139
C           -2.98275424640628        2.16100768977408        0.42121628703362
C           -3.54144983030019        0.74641767379275        0.46924206075734
C           -4.39270756123463        0.28659867061180       -0.54055517551287
C           -4.92820291463878       -0.98937648951206       -0.51997503772515
O           -5.74876533843643       -1.51387245993648       -1.46921391899286
C           -6.21426138562634       -0.67402739161518       -2.49227201477279
C           -4.59486650398348       -1.86534231341775        0.53943082753558
O           -5.14809937456114       -3.10941090723790        0.47012859899555
C           -4.90127090647244       -4.00998710698015        1.51908334039781
C           -3.75815148834230       -1.40877985717717        1.54189466041130
C           -3.24487542503209       -0.11688882637046        1.50697344457233
C           -2.27840473112915        2.39562020039666       -0.94000824657590
C           -1.41665559640647        1.23146172773370       -1.46823084991662
C           -0.16980735073288        0.90637689694607       -0.68824270718536
N            0.27530862697999       -0.30508018552222       -0.37764090437501
C            1.46021883801423       -0.58304921605638        0.14357008138065
C            3.88150282407726       -0.68241788477291       -1.94711811140067
C            5.09497278019693       -0.54934093240219       -1.33732757756632
C            5.84183651265043        0.62074124986082       -1.51186752817798
C            7.06274251018191        0.74918859058269       -0.91853267744630
C            7.57194641568432       -0.25738747757171       -0.10927200651953
O            8.76803360745997       -0.22506588701259        0.53967515143330
C            9.54172262240878        0.93815512547138        0.44819320070333
C            6.83161732079467       -1.45412856795103        0.05791533676108
O            7.44238346695742       -2.41129772715004        0.81118379905568
C            6.75227220012306       -3.61130833126610        1.03874829329457
C            5.61868202962415       -1.58970402851991       -0.54052689419059
C           -0.58097557422802       -1.45286552816882       -0.59700579003580
C           -4.16613485157034        3.14932811220747        0.57349076105363
C           -4.90914979092201        2.90577788754084        1.88553001607464
C           -3.72532012865984        4.60849049672069        0.49811634300011
H           -4.63816275781031        0.94570480084032       -1.35642250952539
H           -6.73730823616500        0.20032235889623       -2.09060367563333
H           -6.91079282996739       -1.27329767161947       -3.07817053117353
H           -5.39672783518054       -0.33711514844044       -3.13670906678096
H           -5.26539597003057       -3.62076959233854        2.47548651087275
H           -5.44966965798326       -4.91712437527614        1.26826381863968
H           -3.83663710674934       -4.24627452084657        1.61298936986267
H           -3.50177890885660       -2.04758271876902        2.37253001668438
H           -2.61634521694545        0.21604788547094        2.31698001976451
H           -3.05106141272698        2.60815132241608       -1.68936714702404
H           -1.64879916522732        3.28090946043953       -0.85534497291628
H           -2.04062895602614        0.34449502564221       -1.54008969285722
H           -1.15421253637249        1.52432293404971       -2.50451484713913
H           -1.05588989777066        1.67342153393056        1.29027678488226
H            0.51777055362582        1.72096474225697       -0.51289083583678
H            1.64660436266158       -1.56224632089857        0.52286724376808
H            2.04290253680341        0.23165281120957        0.56199895904242
H            3.57266101477147        0.07460286288357       -2.63727777762284
H            3.37877239498177       -1.63489169328488       -1.98965304869509
H            5.43757023200404        1.40944977353877       -2.12165837063474
H            7.62625079556194        1.64439096682502       -1.10375666905328
H            9.02948463356356        1.81335249755566        0.85896439825736
H            9.84433390607353        1.14957356860209       -0.58326210146361
H           10.42795666572667        0.74068837610591        1.04429912750545
H            7.39586158641140       -4.19041191764106        1.69895329190619
H            5.78782388159448       -3.44478822957255        1.52679182339690
H            6.59284869713796       -4.16763149873397        0.10834576430837
H            5.04095779902009       -2.49442563509792       -0.43791827107316
H           -0.70538924692258       -1.62358519897563       -1.66491287513446
H           -1.56023328956981       -1.26515433944820       -0.13149127352603
H           -0.09043480972980       -2.33777113869960       -0.16465482389951
H           -4.85746302429695        2.96509816902636       -0.25478003060753
H           -4.24597540662547        3.11108040230530        2.71362841875896
H           -5.25358198684575        1.87620598804586        1.95196149614497
H           -5.76957841051052        3.56869234942021        1.96670550995515
H           -3.01034634891186        4.80802323268672        1.28455887051017
H           -3.27994419224338        4.83932131132293       -0.46590409918747
H           -4.58514537157706        5.26300655474267        0.64306281496650
H           -1.19770145427503        3.10698325911094        3.08367044407452
