72
 energy: -5.839703993766 xtb: 6.6.1 (8d0f1dd)
N           -1.55333678713901        2.83153313702597        2.26284127347629
C           -1.59484742473660        2.16526929169860        1.19888860687283
C           -2.77268358491858        2.07113801647092        0.26841839800983
C           -3.34328688485770        0.66136605247382        0.34328985093387
C           -4.31528489258695        0.25107158526618       -0.57131008297191
C           -4.86072438974694       -1.01785104593058       -0.52772920822614
O           -5.81364714521208       -1.49531236808254       -1.37892496619742
C           -6.37293617402469       -0.61817602177710       -2.32135020222278
C           -4.42482624711441       -1.93236985325531        0.45600406467915
O           -5.01425495879701       -3.16204702732092        0.41657975274216
C           -4.69522385544317       -4.08812218393219        1.42255369996808
C           -3.46605470908313       -1.52449924744815        1.36342378280662
C           -2.93324694729509       -0.24129768513951        1.30665896359441
C           -2.20286809989323        2.31203628047240       -1.15470034753868
C           -1.27003956141446        1.19600836057028       -1.65412019829315
C           -0.00704502851860        1.10804965061779       -0.85389511239467
N            0.61932257732053       -0.10285884788059       -0.55388287855669
C            2.00577387000729       -0.13944418108759       -0.18419808371551
C            3.01946375354700       -0.55630157856777       -1.32251473140524
C            4.44561832876802       -0.44569592212245       -0.89156263142035
C            5.17080590721295        0.71239777012125       -1.10442058451831
C            6.47476813702975        0.82746033363753       -0.64527554794074
C            7.07300199625780       -0.21680367345122        0.03556092212740
O            8.34024677464897       -0.21231627514734        0.53458709262659
C            9.13107497555795        0.93063215906903        0.33711864138638
C            6.34525459795626       -1.40848587509448        0.24911225554141
O            7.01780039471311       -2.38661902189986        0.92001314215535
C            6.37322268568737       -3.61386547917027        1.13865500315681
C            5.04923692967452       -1.50559201589413       -0.21573030205490
C           -0.11185975892447       -1.33644999991113       -0.62045943275457
C           -3.90726930943146        3.08539365619148        0.58030050843181
C           -4.54983156738316        2.79250408655458        1.93440931826964
C           -3.43782990145459        4.53775155744941        0.54192401124725
H           -4.65513493817176        0.94443415518604       -1.32283542118566
H           -6.83355832597479        0.25138107906368       -1.84088262297243
H           -7.14112748250460       -1.19520376014246       -2.83393501910702
H           -5.63102516266496       -0.27706588797006       -3.05134919050758
H           -4.93352824253227       -3.70034768096969        2.41877961924617
H           -5.31230805532401       -4.96256456081240        1.22022198092634
H           -3.63858411051574       -4.37593408830301        1.39016926741581
H           -3.12630970641550       -2.19487056608090        2.13672726654343
H           -2.20603251676319        0.05173947976264        2.04728635852493
H           -3.03097055542300        2.41280304306417       -1.85974336491818
H           -1.64883248783955        3.25093998603524       -1.15712244359548
H           -1.82055498616133        0.25765571005814       -1.62103989269464
H           -1.03951619608778        1.40143039532370       -2.71407080839777
H           -0.72365711176062        1.64092622797139        0.72721399663729
H            0.67657862620429        1.93725384568769       -0.93537234602815
H            2.11267187381326       -0.81247247802674        0.67814080729184
H            2.26615052112606        0.87070471777234        0.15968381893354
H            2.87311510348769        0.07801183712658       -2.20000661107605
H            2.77639784997666       -1.58487827176706       -1.58998045289721
H            4.72668357665195        1.54097389964932       -1.63553529764046
H            7.01776518175246        1.74188069248389       -0.82660943165194
H            8.70047932299207        1.81320986703524        0.82203475285703
H            9.28618273373594        1.14076122161699       -0.72661390157065
H           10.08944149672493        0.70173175766071        0.79802546686335
H            7.09841453793183       -4.23432099827889        1.66353290147155
H            5.48021380627129       -3.49714055160749        1.76135688705446
H            6.09650053548989       -4.09989014261407        0.19669152498196
H            4.48404587115246       -2.41188723578818       -0.06437199980328
H           -0.28621606676873       -1.63920822250462       -1.65882022537678
H           -1.08282735368990       -1.24773193064315       -0.11751130982904
H            0.47829829379639       -2.10595720259546       -0.12488964067128
H           -4.67130914829498        2.95900395578968       -0.19401036533377
H           -3.81841508223837        2.93120178833268        2.72098666636657
H           -4.92414256569945        1.77243615019606        1.97460831006477
H           -5.38107373701327        3.47272217872396        2.10791922235806
H           -2.65404022134320        4.69275151081370        1.27464564193819
H           -3.07047331844868        4.81567602716550       -0.44247758133016
H           -4.27008334211217        5.19514628099138        0.78643803609134
H           -0.67429497816899        2.81348855795787        2.77405675835280
