72
 energy: 39.685064419890 xtb: 6.6.1 (8d0f1dd)
N           -2.03394632521661        3.08248953912803        2.49182722897619
C           -1.95511625570081        2.32475381614789        1.49616045610593
C           -2.99935528300213        2.16287245687961        0.42817862908555
C           -3.55645621246651        0.74808330934097        0.47647283861923
C           -4.39512666900697        0.28707540803148       -0.54197410234461
C           -4.93138856835614       -0.98764607468401       -0.51913692242834
O           -5.74019170319938       -1.51547497263006       -1.47463029075462
C           -6.20007303643919       -0.67862666453886       -2.50288507904520
C           -4.60826739348163       -1.86136580899500        0.54489664357360
O           -5.15795139277763       -3.10474348025178        0.47391499156905
C           -4.91731339285220       -4.00511330042117        1.52555756138519
C           -3.78218363292546       -1.40283870319718        1.55290154930841
C           -3.27045535947024       -0.11045895280346        1.52036189368816
C           -2.28355417136304        2.39999973233815       -0.92554407981264
C           -1.42235210820147        1.23190688642514       -1.45207104574906
C           -0.18915167490385        0.90150374675399       -0.66352562042225
N            0.23602769086424       -0.31583914192765       -0.35378036761936
C            1.40553943596749       -0.60313700323114        0.19046191177755
C            3.93724525353182       -0.68994550819126       -1.99805951745843
C            5.14262751087150       -0.55835196410966       -1.37862779394427
C            5.89118457012916        0.61311983376690       -1.54621401793917
C            7.10534010295788        0.74360403831546       -0.94143415242799
C            7.60632666128237       -0.25949219317369       -0.12392790775613
O            8.79699719293994       -0.22488207872317        0.52662231850396
C            9.57148844074133        0.93943959940303        0.45580793778525
C            6.86604168375782       -1.45746477628967        0.04162342487979
O            7.47198574224886       -2.41198749462251        0.79840534188708
C            6.78029646872684       -3.61124031495417        1.03030755215512
C            5.65999953231418       -1.59510303655603       -0.56956812602033
C           -0.62040450357285       -1.45678311595105       -0.59392790533846
C           -4.18264201574413        3.15311420753544        0.57415807203507
C           -4.93382929603656        2.91339636514877        1.88251843423987
C           -3.74382373119078        4.61320955996659        0.49580230938592
H           -4.63589817603268        0.94523396529627       -1.36007744847205
H           -6.73053190153534        0.19477445602639       -2.10929835003615
H           -6.88954265352903       -1.28302684983952       -3.08982193385990
H           -5.37933763464499       -0.34377097705553       -3.14337753073958
H           -5.29230352376604       -3.61844961899397        2.47744275816670
H           -5.46067040266176       -4.91290811118824        1.26917068077349
H           -3.85372007214376       -4.23894103062646        1.62843491399883
H           -3.53334502678957       -2.03878010049443        2.38689632958298
H           -2.65054662659007        0.22229641300313        2.33686058107669
H           -3.04497142680344        2.61708071874835       -1.68069841619549
H           -1.65604985832308        3.28560188659905       -0.83437779482069
H           -2.05528388554432        0.35206799107950       -1.53911448754712
H           -1.14789200268025        1.53160477954955       -2.48164218128378
H           -1.07755360856427        1.66887076085512        1.32205611315639
H            0.50007122726283        1.71213492500757       -0.47707721086439
H            1.58334474729159       -1.58953772702801        0.55408300134561
H            1.99685507027875        0.20697709197359        0.59832586997394
H            3.62249066475091        0.07148344343751       -2.68104664957045
H            3.42553427913440       -1.63895826265806       -2.02318737000640
H            5.49226178628869        1.40107280952946       -2.15952627681729
H            7.67240198233802        1.63700911897455       -1.12423312295370
H            9.05382390232138        1.81330159571089        0.86084360493076
H            9.88797096444323        1.15385157313537       -0.56877090830327
H           10.44675685005787        0.73668777078359        1.06700874363889
H            7.41876835319884       -4.18245303719458        1.70007020474613
H            5.81181943978472       -3.44306711667996        1.50926562790129
H            6.63039773461233       -4.17637938426547        0.10498099444519
H            5.08317527496350       -2.50041737543509       -0.46689266456582
H           -0.73510235144775       -1.60684483085995       -1.66424868874357
H           -1.60066486744945       -1.27319872621580       -0.13188525802951
H           -0.13439315222505       -2.34595941069373       -0.17170366342644
H           -4.87093091336951        2.96590529237366       -0.25738063761992
H           -4.28009456590713        3.12224665786009        2.71912424615260
H           -5.27800279977000        1.88399945003084        1.94984736004478
H           -5.79655029496334        3.57357125497888        1.95007500927903
H           -3.03358855520579        4.82539350876460        1.28512227295671
H           -3.29401612519185        4.84408196544551       -0.46607172897006
H           -4.60864208057430        5.26156514138778        0.62971574500499
H           -1.22534876662446        3.11993621325533        3.10602903045592
