72
 energy: 34.404203282491 xtb: 6.6.1 (8d0f1dd)
N           -1.80531776574231        3.00887244434898        2.37066106588626
C           -1.77689634561443        2.24347535195594        1.37418863764297
C           -2.88312229688575        2.11727263986662        0.35612040180383
C           -3.45040927352803        0.70655482914490        0.41080001907115
C           -4.36077023901642        0.26940740173862       -0.55477028743636
C           -4.90050799759742       -1.00430479348756       -0.52613704027071
O           -5.78341732556526       -1.51289456869812       -1.43652718450459
C           -6.28991307305670       -0.64824720864058       -2.41700736309502
C           -4.51933135547007       -1.89751434676898        0.50056376339397
O           -5.09419773561577       -3.13742228197804        0.44502436915078
C           -4.80578979453013       -4.04575898025475        1.47625512071920
C           -3.62323294836445       -1.46307612050725        1.46093083646595
C           -3.10050440454223       -0.17530610823990        1.41569830614434
C           -2.24012317353371        2.35929336847409       -1.03198824572482
C           -1.34938550925101        1.22408985574781       -1.55425158144439
C           -0.10371452641410        0.98515864948668       -0.73390503004536
N            0.48457362578834       -0.27227438268912       -0.46135065388011
C            1.82501434452037       -0.44410473287629       -0.12044676516791
C            3.43020300060233       -0.63289182572295       -1.59262881601878
C            4.77468973887183       -0.49907558783955       -1.11212150954553
C            5.51907579494504        0.65608586826125       -1.32411410264256
C            6.78727765715653        0.77927606960344       -0.79733063067271
C            7.34084774203995       -0.24231310262800       -0.04603757718075
O            8.57106726900529       -0.21833870845462        0.54482273374643
C            9.35199338300696        0.93530619708712        0.39770030233139
C            6.60900285857163       -1.43338457398769        0.14240766194527
O            7.24947220926843       -2.40099410023014        0.86567748528451
C            6.57878332202695       -3.61200831440707        1.08578496593228
C            5.35274157102137       -1.54876694497788       -0.39243151400254
C           -0.35301899097627       -1.43736927283746       -0.61401901497600
C           -4.04754056639584        3.11899055087530        0.57590681780721
C           -4.74526465725479        2.85411236785548        1.90765571066317
C           -3.59410237029488        4.57478814308848        0.51741682108042
H           -4.64855257904250        0.94449216341543       -1.34403653699040
H           -6.78193491861825        0.22424629467729       -1.97459442844358
H           -7.02143931111080       -1.23245131766494       -2.97307317757602
H           -5.50356866939979       -0.30747878099341       -3.09769300917408
H           -5.11124277955516       -3.65381937144414        2.45245122364980
H           -5.38449503001257       -4.94137636361051        1.25169507534384
H           -3.74069212110536       -4.30108146252583        1.51268487454660
H           -3.32618356086379       -2.11489839728721        2.26733289749023
H           -2.42566204769031        0.14227697240590        2.19434549434148
H           -3.04135449497673        2.51870873907710       -1.76308584968934
H           -1.64273394351403        3.26943853172828       -0.99236534069613
H           -1.93993837096682        0.31366674704427       -1.57398701146990
H           -1.15642754948835        1.49113583975196       -2.62083159468788
H           -0.89449354324729        1.63138490666683        1.04914984476125
H            0.59491393641949        1.81180633165257       -0.70029672786458
H            2.00799051962176       -1.31272906310735        0.51085921808605
H            2.17287237852098        0.47501289488577        0.35214309604403
H            3.24840368831615        0.07262811010041       -2.38744696442404
H            3.10417325734478       -1.62754233789290       -1.82993274580251
H            5.10333615518294        1.46828774303355       -1.90111382052357
H            7.34380810852813        1.68571694332040       -0.97416697218352
H            8.87759168184034        1.81638483090179        0.84248953905723
H            9.58682170489539        1.14247072037851       -0.65241325022398
H           10.27547165253213        0.72791438140979        0.93012455909926
H            7.25870630148125       -4.21479614776185        1.68787481715311
H            5.64269345185081       -3.46458647821757        1.63277050750968
H            6.36563047729355       -4.13357730593750        0.14553595883114
H            4.78020617290698       -2.45382830600076       -0.26997693672995
H           -0.51603939810096       -1.67232436911490       -1.67016409986350
H           -1.33078050621679       -1.25598318836689       -0.13817096095090
H            0.17274602532695       -2.26989757931032       -0.13996241661323
H           -4.77119181642430        2.96217113647338       -0.22955996054333
H           -4.04715547568720        3.03062339322837        2.71262472457272
H           -5.10256919914357        1.82855995753053        1.96317204903239
H           -5.59212749341096        3.52604787833847        2.03543893841317
H           -2.84798169662812        4.74574823495161        1.28066331350785
H           -3.18351090717078        4.82541998777242       -0.45673625876094
H           -4.43955808053036        5.23454558843472        0.70948616796118
H           -0.96328228714035        2.97752660347560        2.93370675265245
