72
 energy: 39.262338405613 xtb: 6.6.1 (8d0f1dd)
N           -2.05964209922585        3.14186873164989        2.46999390666001
C           -2.00091107499393        2.31747278727580        1.52718310109901
C           -3.03248349776658        2.16739492508186        0.44373322568457
C           -3.58823932789540        0.75466484213331        0.49324027807440
C           -4.40940005158238        0.29094474632929       -0.53680409990095
C           -4.93822448686300       -0.98471633435749       -0.51382729154666
O           -5.72743709750762       -1.51899109968899       -1.48431337943660
C           -6.17414653769126       -0.68856123437955       -2.52508004978658
C           -4.63137461204873       -1.85579252184605        0.55765209964166
O           -5.16805530776700       -3.10052160856652        0.47827495020111
C           -4.94563775460269       -3.99548863601767        1.54044037824294
C           -3.82756382594989       -1.38799369967301        1.57904039739920
C           -3.31905279041646       -0.09425345172348        1.54908229419792
C           -2.28972821914355        2.40639461148374       -0.89574211033121
C           -1.43925752519048        1.23236876956172       -1.42085414083399
C           -0.23389220423998        0.88942307664942       -0.60828094162396
N            0.15803851428477       -0.33614675790364       -0.30200907719803
C            1.29710556656252       -0.63811711315321        0.29023639033621
C            4.04889960127012       -0.70103933397866       -2.10166376060780
C            5.24020270761225       -0.57227341042248       -1.45766401038926
C            5.99338297797966        0.60066473372339       -1.60939599427343
C            7.19512672114529        0.73159222405876       -0.98211324600914
C            7.67971041827122       -0.26660105858467       -0.14895379271985
O            8.85003249800500       -0.21975617010125        0.53724200177337
C            9.63177344197482        0.94086395140177        0.47405845112010
C            6.93699464804407       -1.46613009815662        0.00824641085141
O            7.53109788432576       -2.40970219921221        0.78528211744960
C            6.83695241321104       -3.61075009019865        1.01574158433900
C            5.74400999438725       -1.60538198626512       -0.62909919378110
C           -0.69646597570215       -1.46577399517362       -0.58989364072491
C           -4.21501866360095        3.16246958019057        0.57487832254264
C           -4.98385786687498        2.92914404370614        1.87290907143436
C           -3.78477964437885        4.62428034075652        0.48982593890871
H           -4.63851567110858        0.94477130811616       -1.36301473262622
H           -6.71783238493770        0.18353547368408       -2.14673056299853
H           -6.84953730257380       -1.30074271857023       -3.11975435579471
H           -5.34392080950180       -0.35432498922719       -3.15327406995102
H           -5.34380862639931       -3.60781246242705        2.48221888888739
H           -5.47937291152971       -4.90553690522683        1.27154057489703
H           -3.88188586562038       -4.22087813557767        1.66799913179331
H           -3.59215709176808       -2.01657688552620        2.42189288973501
H           -2.71604179375042        0.24344633352785        2.37673150878489
H           -3.03550222413529        2.64604224212413       -1.65943984510463
H           -1.65388017575360        3.28507501327537       -0.78844752375277
H           -2.08738440052327        0.36435521255635       -1.52955577819076
H           -1.13451223155770        1.54012258298439       -2.43663323988127
H           -1.12252825450792        1.68776269489434        1.32821378953707
H            0.46498907286711        1.68757690540159       -0.41101682839542
H            1.46510949283244       -1.62357363696824        0.65290124774678
H            1.90654560707488        0.16236843345153        0.66673393356722
H            3.71493148666122        0.06354386231148       -2.77586937563153
H            3.52389244752177       -1.64211937746793       -2.09064173765943
H            5.60406625043413        1.38639464424958       -2.23201810046378
H            7.76732793332577        1.62320778791512       -1.15998688744945
H            9.10555591438083        1.81838282297554        0.85984127878310
H            9.97438572554990        1.14791119105655       -0.54384912664042
H           10.48837782355285        0.73597854406315        1.11222331016231
H            7.45942223707708       -4.16992069184994        1.71207028520770
H            5.85457335170036       -3.43544755163592        1.46502490217524
H            6.70937322642409       -4.18710751070865        0.09307150175551
H            5.16765242063826       -2.51122234944970       -0.52754247267970
H           -0.79535292326336       -1.59097299061789       -1.66662910708500
H           -1.68066087315227       -1.29099041376092       -0.13754437119072
H           -0.22233195902858       -2.36656704775255       -0.18275702890312
H           -4.89338764451290        2.96109569351916       -0.26073166486754
H           -4.34645943249239        3.14858824653388        2.72086017701198
H           -5.32624704309806        1.89980566820062        1.94457229992086
H           -5.85064924187138        3.58485620151279        1.91689688730156
H           -3.08746924465402        4.84975302277420        1.28822621583117
H           -3.32341365860266        4.85449535899737       -0.46629388919717
H           -4.65726679383719        5.26552295398016        0.60545939709210
H           -1.29472652718366        3.16818307042033        3.14553415163646
