72
 energy: -1.082831451059 xtb: 6.6.1 (8d0f1dd)
N           -1.62084734649712        2.89082488707431        2.28786060613987
C           -1.64461520776854        2.18345164469013        1.25031788370433
C           -2.80278080266053        2.08388076411675        0.29367243972253
C           -3.37358296636065        0.67450980303196        0.36241924131200
C           -4.32879647033658        0.25627586291005       -0.56604428023958
C           -4.87321288501453       -1.01377019290127       -0.52558393838691
O           -5.80678516310669       -1.50104123950328       -1.39489859038792
C           -6.34942611089025       -0.62700175799321       -2.34875512605251
C           -4.45199243699441       -1.92262344682672        0.46913867126833
O           -5.03726589131263       -3.15606935999215        0.42406692451581
C           -4.72691026969370       -4.07588672963211        1.43806145406003
C           -3.51075731299205       -1.50678610189170        1.39185248136836
C           -2.98096883936514       -0.22236080671900        1.33811111256095
C           -2.21132145131620        2.32524317001567       -1.11975660528512
C           -1.28599022906521        1.20694093325333       -1.62496290143258
C           -0.02802840996877        1.07651540865098       -0.80580813749741
N            0.60231207928858       -0.16333643365652       -0.54349821117082
C            2.00775160194479       -0.24559584071972       -0.20999046865174
C            3.10843497307009       -0.57486641217177       -1.36874594208517
C            4.53432108061668       -0.45672306066214       -0.94407952322611
C            5.26654586074631        0.69529776582949       -1.16655193480220
C            6.56329910085250        0.81267015026967       -0.68938220776782
C            7.14912078658911       -0.22457158126535        0.01196049343074
O            8.40495366421862       -0.21401055584884        0.53923787315425
C            9.19341305097667        0.93203034658048        0.35472413619912
C            6.42063323366199       -1.41588286887201        0.21754834456584
O            7.08366365131842       -2.39038658780294        0.90457642142912
C            6.43217421379360       -3.61348114971486        1.12328129381625
C            5.13362727626183       -1.51612458571843       -0.26624789709224
C           -0.17439892709083       -1.36921660996062       -0.62307640463249
C           -3.94704346755730        3.09471261053616        0.57856546512532
C           -4.60594512543789        2.81067421641277        1.92646656404030
C           -3.48242404047480        4.54801114582039        0.53474919493644
H           -4.65393220099772        0.94449067690569       -1.32875176410024
H           -6.81866287247912        0.24370834587308       -1.87904990564672
H           -7.10741768317262       -1.20522475113463       -2.87491091277515
H           -5.59383587413905       -0.28565272657354       -3.06406283240237
H           -4.98461493214317       -3.68603231583191        2.42870086301385
H           -5.33285611515225       -4.95707684863940        1.23025917674171
H           -3.66709446664087       -4.35383075132089        1.42588780926792
H           -3.18288170643819       -2.17193197835518        2.17466080232291
H           -2.26833594187475        0.07850407407812        2.08926953035316
H           -3.03321796377793        2.44166569064221       -1.83230217073723
H           -1.64583094708056        3.25660563503713       -1.11023610741042
H           -1.84937017686973        0.27650200346923       -1.60629684272343
H           -1.07454424508433        1.42608463771902       -2.69349840307386
H           -0.76884514986393        1.63046788748619        0.81772944407380
H            0.67603269290486        1.88869728500426       -0.87634518369535
H            2.10667432701031       -0.95970900395344        0.62045402043773
H            2.24137843221202        0.75073740054492        0.21102200204869
H            2.97848635323081        0.08545644052291       -2.23061282514534
H            2.87353859121608       -1.59596635072108       -1.66523439457900
H            4.83298074792506        1.52104272772205       -1.71056311146957
H            7.11066019169027        1.72559890638303       -0.86671708301281
H            8.75001266234097        1.81439329681870        0.82799146961724
H            9.37111440619576        1.14028872076574       -0.70585266438524
H           10.14265859844484        0.71011793019380        0.83551843001475
H            7.14475445430465       -4.22934937108940        1.67088874587311
H            5.52600161856375       -3.48781323749250        1.72402372687477
H            6.17406675709795       -4.10907831295671        0.18093684244296
H            4.56678538628458       -2.42227124437224       -0.12317541439376
H           -0.35026351588969       -1.65663638043761       -1.66532719838636
H           -1.14938304500640       -1.24909739424268       -0.12907629520622
H            0.39230813085593       -2.15822832419992       -0.12872583137631
H           -4.69958919530957        2.96041950236340       -0.20485466770521
H           -3.88293965910423        2.96069452165987        2.71693814021503
H           -4.97553297474953        1.78904859511115        1.97179883902974
H           -5.44151270646576        3.48901603280976        2.08804829537538
H           -2.70925968445583        4.70474925073123        1.27641579356294
H           -3.10239226592927        4.81738207303877       -0.44699521698061
H           -4.31794681709949        5.20728067477803        0.76456743400431
H           -0.75568239286491        2.86001582864781        2.81735613087867
