72
 energy: 40.077667078578 xtb: 6.6.1 (8d0f1dd)
N           -1.96274224061126        3.08476367389290        2.45015771031856
C           -1.89036613150453        2.29557904546153        1.47028966719878
C           -2.94950076288402        2.14461984280529        0.40335230495644
C           -3.51198120090484        0.73219682508162        0.44976277299489
C           -4.38484736812408        0.28151411482260       -0.54467841853100
C           -4.92024245790869       -0.99457014818925       -0.52308436026008
O           -5.76351466586520       -1.51279241400565       -1.45810392089769
C           -6.24065170935463       -0.66499381672537       -2.46812397960505
C           -4.57291866767609       -1.87593105140285        0.52631328045636
O           -5.13950546170101       -3.12055070773846        0.46251767730544
C           -4.87055872380092       -4.02203340445311        1.50522970086191
C           -3.71419084931361       -1.42839931079408        1.51470973831205
C           -3.19717947563493       -0.13794730512939        1.47644886704966
C           -2.26640737514865        2.38250172896002       -0.96693383887525
C           -1.40123925686431        1.23017627259338       -1.49884309382197
C           -0.15644887346010        0.93095454023140       -0.70399532911069
N            0.33734842762310       -0.27939650863331       -0.41817623468894
C            1.55713316835169       -0.54118342830990        0.05306808823947
C            3.76373967495826       -0.66367210675126       -1.84747256763790
C            4.99584242226582       -0.53066556618297       -1.26200284512670
C            5.73942349182545        0.63757142888914       -1.44883644688378
C            6.97348748411078        0.76081722416480       -0.87898069537226
C            7.49680762590824       -0.25473093341373       -0.09092344622378
O            8.70324530849611       -0.22308074031041        0.54206160941848
C            9.47876133988419        0.93734136441530        0.43132780912514
C            6.75882409054373       -1.44877629987883        0.08562776849643
O            7.38030256705255       -2.40859110869089        0.83314181835014
C            6.69490796242161       -3.61170292607844        1.05490381693397
C            5.53287947140122       -1.57798980022217       -0.49053646288573
C           -0.50783798776583       -1.45188545934843       -0.60490511457220
C           -4.12671395864484        3.13871320552190        0.57425709993133
C           -4.85485580354679        2.88834275420004        1.89261840778386
C           -3.68178328353718        4.59675815281441        0.50437927406181
H           -4.64195295421452        0.94476342502431       -1.35485657849896
H           -6.75302426827058        0.20899009083798       -2.05264643000756
H           -6.94873219211753       -1.25889095102201       -3.04493450381318
H           -5.43243593864879       -0.32725968694633       -3.12388620429057
H           -5.21377878734311       -3.63097436927537        2.46920801883109
H           -5.42766059480338       -4.92753526358344        1.26533652816481
H           -3.80372014063721       -4.26144353585490        1.58030491829271
H           -3.44335254159916       -2.07041337157180        2.33841682062436
H           -2.55358784503515        0.19072918939884        2.27682206979279
H           -3.04832183140689        2.57887509278457       -1.71154835918285
H           -1.64471684716520        3.27531543181932       -0.90025474050726
H           -2.00889051580723        0.33211227872016       -1.54944465034706
H           -1.17321211470918        1.51969293345814       -2.54638420669585
H           -1.00506198267743        1.65498933992900        1.22473629633312
H            0.53992511345091        1.74979883629838       -0.57439319493307
H            1.77130040064773       -1.50260629066198        0.47772996324862
H            2.10945618395276        0.29081376563502        0.47308343255728
H            3.46947168634304        0.08185144589508       -2.55316293571232
H            3.28600771430045       -1.61943399983630       -1.92028154963486
H            5.32479722751336        1.42891528993558       -2.05170244003546
H            7.53537428172249        1.65998535357430       -1.05663510351763
H            8.97956880967511        1.81523494816758        0.85443499063474
H            9.75895288672822        1.14678101476657       -0.60727699063121
H           10.37779928071323        0.73680708065035        1.00622876752650
H            7.34964396121009       -4.20109988665132        1.69682973264236
H            5.73840046560897       -3.44927299398805        1.56062143123251
H            6.51736573538979       -4.15439393848027        0.11879364122939
H            4.95172683805478       -2.47913940171690       -0.38655372365530
H           -0.65088038873304       -1.65850522060829       -1.66848359997813
H           -1.48427638607418       -1.25751616838310       -0.13458103985518
H           -0.00239648785429       -2.32068697370259       -0.15412344608506
H           -4.82855586587390        2.96405454790729       -0.24681552851811
H           -4.17897910998362        3.08488033249190        2.71157737817179
H           -5.20285895904670        1.85993917006806        1.95565195569497
H           -5.71057609645291        3.55414912827023        1.99043111623144
H           -2.95717002454331        4.78406356152663        1.28387092214946
H           -3.24751244010641        4.83466233509465       -0.46276372357996
H           -4.53616607271679        5.25398201270451        0.66576680321737
H           -1.13267778851410        3.06082975694633        3.03400722157710
