72
 energy: 37.665755125558 xtb: 6.6.1 (8d0f1dd)
N           -2.18688811072699        3.21672933753583        2.48355812143027
C           -2.05658008727307        2.37097715561866        1.56996375739252
C           -3.08642226155876        2.18983582334471        0.48152578482557
C           -3.64581442649230        0.77849236830053        0.52899418041744
C           -4.42946064821356        0.29914059650335       -0.52514566013089
C           -4.94101858432079       -0.98570706360765       -0.51891387037830
O           -5.71270710023847       -1.53029487550301       -1.50629414283207
C           -6.12226399510536       -0.71125880374806       -2.57247818613170
C           -4.67329641180090       -1.83563316000647        0.57783077084182
O           -5.19911026370344       -3.09386237075502        0.49175632806398
C           -5.00758969741849       -3.97210418456501        1.56867400607371
C           -3.91709126165586       -1.35301073607695        1.63062457464041
C           -3.41524293072546       -0.05730635597396        1.60675309294268
C           -2.31139961116648        2.42730918104697       -0.84107431958547
C           -1.48303801290647        1.24579676977608       -1.37329284582797
C           -0.31613540975698        0.87976290136354       -0.53063380768755
N            0.01508295779025       -0.35263457633791       -0.18679839672879
C            1.09531792640674       -0.66057975767401        0.51499993476850
C            4.26853112392361       -0.74361759343432       -2.31207106729573
C            5.43466400307383       -0.59818800630925       -1.60656561451187
C            6.19710533746783        0.58738398861382       -1.71896425953044
C            7.36996626162637        0.73464682328553       -1.03410293905550
C            7.82281818314452       -0.26879829537367       -0.18077199107281
O            8.96901840923804       -0.21930400751023        0.55451855541949
C            9.75471456466850        0.93932103125020        0.51128445413747
C            7.07828865520900       -1.47157242242415       -0.05023438706105
O            7.64946699470457       -2.40494969576480        0.77160966585026
C            6.95167708215354       -3.60425201369020        0.99007089088664
C            5.91431576282027       -1.62759243105075       -0.74361397306812
C           -0.83480812351700       -1.46410638355227       -0.56584187181072
C           -4.28217091320405        3.17993022072218        0.57695884484449
C           -5.08785827346663        2.96430267146981        1.85824626702671
C           -3.86853586029187        4.64779236547053        0.47601196844134
H           -4.63452514191415        0.94693853370119       -1.36224711856100
H           -6.68677488501173        0.15901722659068       -2.22137863861140
H           -6.77263219259964       -1.33511412500620       -3.18426943381405
H           -5.27588729835850       -0.37317606718607       -3.18012118921419
H           -5.44598664315752       -3.58231472513051        2.49261943796380
H           -5.51912551840607       -4.89096563730744        1.28785721550728
H           -3.94708765675831       -4.18718900192426        1.73880335312730
H           -3.71049793638119       -1.97165607814930        2.49021835711449
H           -2.84690125665589        0.28965188235978        2.45662591218431
H           -3.02977417056121        2.69316103664370       -1.61723573970090
H           -1.65080297533047        3.28570991311132       -0.70190600162768
H           -2.14370519890327        0.39587138573902       -1.52552633965327
H           -1.10526429296920        1.55603483418466       -2.35358035883559
H           -1.21007561872866        1.68205992869184        1.45643414512409
H            0.38762475145697        1.65686228413513       -0.27529384606858
H            1.25676225975718       -1.65960411203464        0.85431615086286
H            1.73940145094567        0.12677237447865        0.84707231663897
H            3.90869492208731        0.03114240153761       -2.96178008454347
H            3.70251446816158       -1.65291952706209       -2.24457333714190
H            5.83108330985466        1.36673035370238       -2.36816258486148
H            7.95494424232064        1.62893426343488       -1.18468178570538
H            9.21199147645958        1.82371912057660        0.86198658005799
H           10.14262108888571        1.13176166135330       -0.49555271961732
H           10.58475885610795        0.74040557313127        1.18782546115772
H            7.54426061006826       -4.14961480725095        1.72365594402745
H            5.95011071389424       -3.42886823927221        1.39321124465861
H            6.86480316624186       -4.19954841629272        0.07325478186492
H            5.33316557501670       -2.53291831068636       -0.65813877488576
H           -0.91268978110470       -1.54841027973630       -1.64990028133540
H           -1.83114160607724       -1.32914086887249       -0.13947132855440
H           -0.38411041673737       -2.37546987041083       -0.17763465466894
H           -4.94199279313238        2.95687527357888       -0.27232314969362
H           -4.47980670565753        3.20688011218969        2.72276395082556
H           -5.42546274135656        1.93354645963862        1.93920366789159
H           -5.96224042328552        3.61277633361565        1.85816845802957
H           -3.19493557286853        4.89852159994409        1.28815737007413
H           -3.38725194883155        4.86871697839126       -0.47319906964675
H           -4.75356655120494        5.27709298448107        0.55578202479231
H           -1.42402488320545        3.28124779304556        3.14689593576999
