72
 energy: 25.460581888764 xtb: 6.6.1 (8d0f1dd)
N           -1.76717836637534        2.98966216546658        2.35110291115617
C           -1.74998275865410        2.23068836474926        1.34980784292528
C           -2.86675003464289        2.11061896626775        0.34370537168258
C           -3.43501771060203        0.70039579009361        0.40103097418293
C           -4.35477081224252        0.26707939224720       -0.55679087170256
C           -4.89649025336576       -1.00520560288900       -0.52431440466626
O           -5.78894763909825       -1.51061736760859       -1.42792515291181
C           -6.30201373060104       -0.64406549300057       -2.40343933074290
C           -4.50606588230816       -1.90242580877749        0.49459313956050
O           -5.08283506170620       -3.14155790569765        0.44064647283168
C           -4.78976388709397       -4.05177167300693        1.46867489978899
C           -3.60068362756564       -1.47160878122445        1.44738787089612
C           -3.07670610833430       -0.18451646524306        1.40028289003639
C           -2.23370569597812        2.35275953773639       -1.04944799589483
C           -1.33357198397390        1.22199150720319       -1.56690070163776
C           -0.08795442585357        1.00958165747345       -0.73427735288057
N            0.52689392574419       -0.26512850416877       -0.48295422114218
C            1.90724320635743       -0.41931630845279       -0.17511361853733
C            3.33316483242358       -0.62125796500673       -1.51535008002370
C            4.72017330844541       -0.48817998153968       -1.06708097891162
C            5.46383641234708        0.66089912642115       -1.29192430860624
C            6.74150864683648        0.78373012214046       -0.77739007918914
C            7.30228892660949       -0.23920554527429       -0.03513888793749
O            8.53711523719592       -0.21731801054731        0.54424636135872
C            9.32034423935972        0.93470582187554        0.38948049297984
C            6.57206169110297       -1.43014660916501        0.15652030243173
O            7.21654667526936       -2.39876547672207        0.87288428161778
C            6.54993436728256       -3.61240393641657        1.09328842650925
C            5.30702228277859       -1.54109238509398       -0.36650835813880
C           -0.31234105069314       -1.42728255757284       -0.61771665819171
C           -4.02768800694864        3.11406269218089        0.57643142524972
C           -4.71749903301766        2.84540942264090        1.91161864273411
C           -3.57213373485137        4.56936347829680        0.52105887676864
H           -4.64993106237221        0.94441399024601       -1.34130554927601
H           -6.78930715869909        0.22821010515813       -1.95550321176891
H           -7.03901883440745       -1.22667082012185       -2.95398637613844
H           -5.52146146656570       -0.30308524486321       -3.09086410056490
H           -5.08569246040249       -3.65995432918848        2.44787669832623
H           -5.37385144053173       -4.94481214149438        1.24785604203411
H           -3.72541017149472       -4.31133674134463        1.49551102598862
H           -3.29710354484678       -2.12617164532588        2.24900109404099
H           -2.39397706793428        0.12996572916138        2.17317986754007
H           -3.03962533033711        2.50343811054015       -1.77686797728512
H           -1.64286738378677        3.26743719905443       -1.01577733601266
H           -1.91975055462158        0.30748303950114       -1.57926990215073
H           -1.14148861616695        1.47852797416815       -2.63750250774992
H           -0.86828221576027        1.62708337267759        1.00222513848152
H            0.61850598601405        1.82671795765360       -0.73582171294949
H            2.04580276276569       -1.24661748413968        0.52437214051421
H            2.19177983509041        0.52195903342969        0.32055553559438
H            3.19262245557600        0.07329004218631       -2.33782282446314
H            3.06128416929715       -1.62368100907938       -1.80317145419408
H            5.04795885742927        1.47786904212244       -1.86279299564415
H            7.29613899163468        1.69210389220693       -0.95390507383102
H            8.85231604945268        1.81615374242364        0.84003725269071
H            9.54418483685424        1.14174013600858       -0.66288413960046
H           10.24917804328313        0.72446541940450        0.91160155710780
H            7.23659138400957       -4.21774380655218        1.68491890799015
H            5.61956674378783       -3.46904672071661        1.65094792859730
H            6.32805342929531       -4.12875100174798        0.15240830500377
H            4.73694211893326       -2.44720891289208       -0.23965933922386
H           -0.48269744943537       -1.67481510860732       -1.67054231726986
H           -1.29006370809778       -1.25100257955423       -0.13848641496633
H            0.21639173270212       -2.25223505437343       -0.13595748280000
H           -4.75721867236154        2.96191876647133       -0.22467680025600
H           -4.01381679973838        3.01661793303729        2.71314469984834
H           -5.07722018464778        1.82060962093462        1.96521074406757
H           -5.56206587037373        3.51876977339145        2.04696401174178
H           -2.82038477023889        4.73642019975062        1.27996010329137
H           -3.16764466457595        4.82350891071235       -0.45474656038546
H           -4.41534649846976        5.22950624570862        0.72101912386309
H           -0.92192418601870        2.95609416188056        2.90909470841420
