72
 energy: 15.675801333501 xtb: 6.6.1 (8d0f1dd)
N           -1.72928507243324        2.96868191302344        2.33322758417588
C           -1.72334533297574        2.21760003823884        1.32600343391088
C           -2.85044860964914        2.10393263070949        0.33157413868971
C           -3.41972025004995        0.69407431720922        0.39133660825782
C           -4.34852940366044        0.26428821998658       -0.55898182363339
C           -4.89084951722629       -1.00755702398859       -0.52436264696502
O           -5.79401897216808       -1.50862900066737       -1.41968010399308
C           -6.31390377313793       -0.63985506149655       -2.38974761219640
C           -4.49253466831384       -1.90758094536128        0.48831106313889
O           -5.07151378540123       -3.14566885667742        0.43647927078570
C           -4.77393239875993       -4.05781688005848        1.46123998620541
C           -3.57817020810886       -1.48028737450415        1.43368627321986
C           -3.05289601732785       -0.19385080826338        1.38485171960848
C           -2.22714637304902        2.34596476670088       -1.06661254829606
C           -1.31873680878787        1.21978582487364       -1.57998684530620
C           -0.07196684825451        1.03014270204280       -0.73993283770858
N            0.55597685233137       -0.24393065449170       -0.50660456902752
C            1.96828311526591       -0.38833619081537       -0.21798780108321
C            3.25495121650017       -0.60972982721630       -1.45795887500151
C            4.66963560897748       -0.47865444923720       -1.02949383255035
C            5.41146302969766        0.66810856692590       -1.26011443859876
C            6.69580617410460        0.79013297398212       -0.75575426856171
C            7.26357917370355       -0.23561930037629       -0.02341657636635
O            8.50313779815481       -0.21625068880458        0.54335804442807
C            9.28822871670338        0.93430423957412        0.38094907308276
C            6.53430221895173       -1.42692728171719        0.17109153490836
O            7.18319062260884       -2.39654906985023        0.88022289528682
C            6.52093384442351       -3.61298864388634        1.10075005308975
C            5.26229042924275       -1.53423702546276       -0.34139199673879
C           -0.27515067121689       -1.41350447134239       -0.62079448274598
C           -4.00769176231753        3.10923818516514        0.57681632855779
C           -4.68998555666297        2.83696649346602        1.91521179773048
C           -3.55000087983089        4.56406549861520        0.52429657675040
H           -4.65109935363764        0.94427671642481       -1.33831472909716
H           -6.79643007480767        0.23212915056836       -1.93614539287059
H           -7.05634649219562       -1.22093586986815       -2.93459999368320
H           -5.53926785250276       -0.29859704251565       -3.08389029073895
H           -5.06029529348207       -3.66617943855652        2.44335732313056
H           -5.36340335232896       -4.94818199319933        1.24406664493087
H           -3.71045000739202       -4.32170221604613        1.47848885696168
H           -3.26846917097226       -2.13742149450305        2.23074526315172
H           -2.36256388407720        0.11754878784709        2.15218401728030
H           -3.03712602500758        2.48770835758015       -1.79079876938444
H           -1.64275561781827        3.26496858491741       -1.03871998576138
H           -1.90019947773627        0.30139638021557       -1.58451571767884
H           -1.12450170558192        1.46525843310785       -2.65282330891065
H           -0.84231157768043        1.62539738137447        0.95571084069417
H            0.63987910218417        1.84029325595721       -0.77103077742062
H            2.07338207305572       -1.17689403384098        0.53778020522814
H            2.20862700316442        0.57032842899203        0.28831098993103
H            3.14015912607540        0.07737770757626       -2.29857090060174
H            3.01716803425355       -1.61719936574405       -1.77327874969330
H            4.99315499530890        1.48864307063913       -1.82411500420302
H            7.24851320892632        1.70015621478306       -0.93163414262462
H            8.82635399404228        1.81595961802142        0.83725631500111
H            9.50085382813181        1.14140317772830       -0.67358080183897
H           10.22230316093085        0.72126621264018        0.89274893846773
H            7.21449219828509       -4.22056589108118        1.68173145811491
H            5.59648691246617       -3.47396877418915        1.66923338037792
H            6.29017249204505       -4.12433422621224        0.15946136410777
H            4.69376039920002       -2.44073713516261       -0.21064664357809
H           -0.45073672867940       -1.67418771483755       -1.67007020517659
H           -1.25307285675332       -1.24865380875150       -0.13802281623457
H            0.25993169441302       -2.23076488982355       -0.13366876069724
H           -4.74300021261189        2.96177980556364       -0.22000559085890
H           -3.98100406128465        3.00296115092816        2.71350536160310
H           -5.05197187865253        1.81287700398881        1.96693042022205
H           -5.53228836345933        3.51163027696893        2.05780178035496
H           -2.79282822694367        4.72765544244914        1.27896754108455
H           -3.15133031757884        4.82161155152349       -0.45304582571633
H           -4.39096074060285        5.22460056222130        0.73175530475566
H           -0.88004078967323        2.93308270008858        2.88535442968577
