25
 energy: -42.166254141621 gnorm: 0.005671445994 xtb: 6.6.1 (8d0f1dd)
C            3.08840174482676        1.14136825613249       -0.26227931032031
N            2.11648605044391        0.14617855239810        0.10154044502813
C            2.32482431779842       -1.14729524241453        0.21750137061405
N            1.19978140642171       -1.80024695952472        0.54624115275005
C            0.11817935571208       -0.86559633082112        0.74889031907017
C            0.78258275800139        0.41522937658154        0.35501347496961
C            0.06578039908820        1.54387022212912       -0.04452848532569
O            0.45867414114546        2.64499215366638       -0.37242691239846
N           -1.37777958691650        1.27092609324252       -0.06388996304862
C           -2.20697909730434        2.28515360671984       -0.10155940336866
C           -1.90105750569215       -0.05918146872689       -0.34543942421271
O           -3.00323492402232       -0.16680045880635       -0.80271782073105
N           -1.05220357013076       -1.08558844780526       -0.09433625705320
C           -1.54435234967710       -2.44196368326563       -0.25339591339374
H            3.60163851666707        1.50786248662833        0.62896300871732
H            3.81985401764124        0.71795376292944       -0.94731762255828
H            2.57822784099128        1.98431292400508       -0.72837428024366
H            3.26906591781873       -1.63281065131252        0.05142742138766
H           -1.80048381110878        3.27880185625889       -0.00196902050474
H           -3.25757676051540        2.09921739995281       -0.25449674439055
H           -0.22906159923654       -0.90143622001467        1.80537666656907
H           -1.62361056449800       -2.93690540066156        0.71544000808716
H           -0.87696954923797       -3.00270003569659       -0.90740909775836
H           -2.53014592763249       -2.39403092869391       -0.71114400117123
H            1.14039029351942       -2.78307232129716        0.75206200719521
