25
 energy: 34.002253074805 xtb: 6.6.1 (8d0f1dd)
C            3.40885555034766        3.24724763073010        0.38035618554856
N            2.35326878088735       -0.70462614000017       -0.24814443321823
C            2.41298086238670       -1.98151834935299       -0.07366472467849
N            1.16222806271483       -2.57231443527470        0.01786466535123
C            0.27566583471070       -1.54652173886446       -0.08412290640708
C            1.02557764300540       -0.39846432990971       -0.24180700553645
C            0.38872097595046        0.87703363450724       -0.33324405008648
O            0.90839935442550        1.93287253735073       -0.57811772563132
N           -0.98505943281492        0.81556912689115       -0.07442437298802
C           -1.65920940524526        2.09000622298399        0.12062169708852
C           -1.75443046966352       -0.31710142959939       -0.00097125437144
O           -2.96397365601819       -0.28653924261468        0.07717944985316
N           -1.07958046216566       -1.53827733741469       -0.05940521102145
C           -1.87858956235825       -2.73153603306443       -0.15810890779222
H            4.04919458760084        3.41664575762479        1.20361278746795
H            3.75504584249872        3.29141728473280       -0.62420480251431
H            2.41610883151748        2.90523677833191        0.55654701551747
H            3.31947772282303       -2.54476623803468        0.00862698442693
H           -0.95038866434899        2.88934138544487       -0.06422892327255
H           -2.49280084831597        2.19195910504682       -0.57227146625212
H           -2.04456382529414        2.10312628744061        1.13802340492048
H           -1.86698823356728       -3.28339627720408        0.77438304673631
H           -1.54976289709553       -3.33813203992380       -1.00052899213121
H           -2.90190496511316       -2.39801062163594       -0.31058456112034
H            0.95792372857829       -3.56001164262265        0.06924881197468
