25
 energy: 30.939778867333 xtb: 6.6.1 (8d0f1dd)
C            3.58918323860353        3.55365453233366        0.28274033693352
N            2.31825496896484       -0.84136926065700       -0.09900719177402
C            2.33752658433568       -2.13088072456102       -0.06682592929938
N            1.06993810594222       -2.68044056544973       -0.07171840471212
C            0.21717096490291       -1.62140696265197       -0.08554865144258
C            1.00277634433289       -0.48102725957817       -0.09711606341427
C            0.40623986901697        0.82782772094897       -0.09678647983130
O            0.97158003916581        1.89093130746019       -0.16569909841949
N           -0.99866689353374        0.76166936364352       -0.00720028361769
C           -1.71022275536758        2.03381297396166        0.09760427022707
C           -1.78929364810736       -0.36460927164741       -0.03277794718694
O           -3.00065025595323       -0.30950276572547       -0.03189532246700
N           -1.13879564502887       -1.59604839180725       -0.08285596963214
C           -1.93464163041655       -2.79811697573802       -0.16569168565357
H            4.05111558817355        3.81568802633148        1.20419782551938
H            4.06721876172176        3.67970703206031       -0.66237831420106
H            2.63452321989995        3.08187833886159        0.29584138284126
H            3.22750868376460       -2.72677058595605       -0.05541685101204
H           -0.97250571884295        2.83927095757265        0.02486425918829
H           -2.43326345116391        2.12178620881612       -0.71196064249849
H           -2.23865552750405        2.06702354579788        1.05161181995882
H           -1.80805610887508       -3.38791373921741        0.74075062283100
H           -1.67010276659463       -3.37493175254714       -1.05466879928379
H           -2.97390721897972       -2.48209332502225       -0.23855972152800
H            0.83719310388618       -3.66302305024339       -0.07805868563239
