25
 energy: 33.023097743690 xtb: 6.6.1 (8d0f1dd)
C            3.46840154948609        3.35550016918099        0.34795974545745
N            2.34140692576658       -0.75046696879953       -0.19897671697984
C            2.38794434846198       -2.03301290776799       -0.07079091458738
N            1.13080817705798       -2.61066765010382       -0.01205657975019
C            0.25600832124130       -1.57224956791177       -0.08566456433214
C            1.01847131199486       -0.42587410622664       -0.19386226963054
C            0.39653164228856        0.86159208790891       -0.25452243109362
O            0.93545855327281        1.92089306485119       -0.44102299540259
N           -0.98857901716786        0.80082917253112       -0.05155871964010
C           -1.67313774941914        2.07769837878788        0.11782182936284
C           -1.76609776424906       -0.33106980479328       -0.01179666901978
O           -2.97681682758099       -0.29442104031092        0.04337553307359
N           -1.09927817368567       -1.55532167624694       -0.06949201629899
C           -1.89492189274136       -2.75269593120383       -0.16036774954377
H            4.05317928953878        3.55177429382523        1.20790823784635
H            3.85800251039986        3.42382057095935       -0.64126493725756
H            2.48794401110441        2.96190375063129        0.47003447765662
H            3.28984328434792       -2.60690972732230       -0.01363587709379
H           -0.96508010141963        2.89664318694242       -0.02811152709468
H           -2.47315392559773        2.17021230941798       -0.61659495578635
H           -2.10875307036393        2.09226792028670        1.11761737598681
H           -1.82822702541425       -3.30813052409608        0.76839369606690
H           -1.58872360418756       -3.35052313053097       -1.01943813251280
H           -2.92553501811401       -2.42751346155129       -0.28365434217242
H            0.91588447245646       -3.59713912473353        0.02272024253589
