25
 energy: 0.000000000000 xtb: 6.6.1 (8d0f1dd)
C            3.23720132972391        1.16630909158653        0.08434468864950
N            2.29877796055224        0.07527476373246        0.03981602671198
C            2.58028186251803       -1.21425391179017        0.03006175752192
N            1.43813944744728       -1.93419254010258        0.00098261751768
C            0.39035684826767       -1.05887462812143       -0.00790371763344
C            0.93510047688824        0.21347817468824        0.01709077332874
C            0.09450143016486        1.40504290868848       -0.00410946993748
O            0.49712746915594        2.54126690785742       -0.00342325656480
N           -1.25076628431515        1.06271869620815       -0.03085477937476
C           -2.21907191394203        2.15522079838987       -0.05001256521996
C           -1.81739470187490       -0.20012724136556       -0.04692818139228
O           -2.99983858926755       -0.37846413507442       -0.07008877579474
N           -0.92618577614240       -1.30210203518959       -0.03682761236648
C           -1.46982251276835       -2.64643077634382       -0.06029819901142
H            3.71247229913541        1.21471443890471        1.06488839270555
H            4.00791460421487        1.03430799217987       -0.67357688121503
H            2.69909982127087        2.09770098766290       -0.09130154035862
H            3.56654087521359       -1.63682977417947        0.04233139674524
H           -1.67107945562430        3.09322822573871       -0.02552706696334
H           -2.82428927394145        2.09428605349656       -0.95318074103337
H           -2.87644002486466        2.07745706351925        0.81450059976605
H           -1.17061985538665       -3.19584861009707        0.83242224714061
H           -1.14560246782873       -3.17511580834413       -0.95688266944647
H           -2.55549768731684       -2.55659960601237       -0.07459039105944
H            1.38130842369251       -2.94313824728853       -0.01389874052104
25
 energy: -6.254375818050 xtb: 6.6.1 (8d0f1dd)
C            3.24150782734247        1.18401414002071        0.07963425065044
N            2.30463562863036        0.10819020106860        0.03302469888527
C            2.60230827075170       -1.23880063155273        0.03942441289147
N            1.42043717042941       -1.93951967710088        0.00226808231416
C            0.39872579571442       -1.06247316545058       -0.00778788346705
C            0.91849999870486        0.22520903373864        0.01535529104026
C            0.11400167892806        1.38464675666761        0.00094616264348
O            0.49067650361996        2.56030273388062        0.00875379109105
N           -1.26968480403730        1.04634499276832       -0.02763515794289
C           -2.21975855646169        2.14595498209907       -0.04363706698874
C           -1.81818856757831       -0.19936781068115       -0.04658204475973
O           -3.01713562910995       -0.38698718608757       -0.07091564070444
N           -0.93964835157951       -1.30272232938190       -0.03778247096968
C           -1.47530383218182       -2.64324663297252       -0.06484336549621
H            3.67081420417328        1.28229068210087        1.07705775673806
H            4.05089663460335        1.00068271060571       -0.62881751562713
H            2.73989958917870        2.12531317759230       -0.14896335399203
H            3.57647250618841       -1.65734990844058        0.04693951439289
H           -1.65749440717031        3.07767370037924       -0.01846816934361
H           -2.82524725711326        2.09535687811551       -0.94754147562270
H           -2.87751919730389        2.07482978849779        0.82207838195359
H           -1.17288353551669       -3.19880205418749        0.82601434557713
H           -1.14835779996568       -3.17367353693684       -0.96281669234418
H           -2.56065372598293       -2.55148915880648       -0.07889240078964
H            1.36719798176574       -2.94415553526926       -0.01539720279007
25
 energy: -5.942720373876 xtb: 6.6.1 (8d0f1dd)
C            3.24571039261968        1.19320710806558        0.07403284574317
N            2.30641903837862        0.11429007412855        0.02914835610836
C            2.60377281375345       -1.23857985528953        0.04755767001909
N            1.41887391528113       -1.93898310374027        0.00434734205857
C            0.39695705406166       -1.06291615393096       -0.00818698220479
C            0.91779712636325        0.22537681678330        0.01442864125683
C            0.11265301993581        1.38295708181854        0.00716896720188
O            0.48757943878376        2.55872847698580        0.02368590493298
N           -1.27198926020847        1.04259115241291       -0.02392728002649
C           -2.22076591477517        2.14248708392117       -0.03746065301955
C           -1.82229668388038       -0.20212474778657       -0.04655053410181
O           -3.02167113721377       -0.38821227312026       -0.07309581463303
N           -0.94254127543963       -1.30463460837493       -0.03869313039399
C           -1.47973808550418       -2.64578553713870       -0.06916246263288
H            3.62451049225144        1.33988968973167        1.08529382308949
H            4.08862450543868        0.96688678496543       -0.58347540495066
H            2.78288691014357        2.14403059665596       -0.20678451929005
H            3.57526730273184       -1.66685826248627        0.05168240724120
H           -1.65528422159707        3.07217404819983       -0.01035357422910
H           -2.82537042893670        2.09546794957623       -0.94162570999159
H           -2.87919300160300        2.07062583283030        0.82783513356382
H           -1.17934172270392       -3.20643782813903        0.81913429591853
H           -1.15336073497126       -3.17600902001618       -0.96758930569656
H           -2.56552845724574       -2.55492698140744       -0.08410006662710
H            1.36050300465774       -2.94371783236941       -0.01336685290660
25
 energy: -5.380503021653 xtb: 6.6.1 (8d0f1dd)
C            3.24951542076356        1.20241218810441        0.06754771696621
N            2.30718235930532        0.12069024347463        0.02412321589570
C            2.60436237762078       -1.23830718977869        0.05849204605172
N            1.41687176517141       -1.93882442542709        0.00628159841657
C            0.39513371808589       -1.06387019484758       -0.00848965176146
C            0.91611452881487        0.22524559162011        0.01337682686089
C            0.10986893819513        1.37982805334645        0.01303160028511
O            0.48017440896378        2.55644904605755        0.03879299892605
N           -1.27537914292541        1.03738924113491       -0.02015339742445
C           -2.22142154474176        2.13870497051868       -0.03085010845025
C           -1.82641995619471       -0.20619053567388       -0.04627709797707
O           -3.02612174288882       -0.39179946987100       -0.07423128525025
N           -0.94523716571832       -1.30697444686971       -0.03983679144885
C           -1.48386635103392       -2.64761706690799       -0.07372497642413
H            3.57310299877875        1.39939376508085        1.09010587299318
H            4.12482379592259        0.93107869037561       -0.53325335613883
H            2.82746530432665        2.15974035589287       -0.26609742117336
H            3.57247891918772       -1.67633562953859        0.05640023464528
H           -1.65048866636982        3.06513944134687       -0.00234674675658
H           -2.82556207037625        2.09648994485711       -0.93514391313996
H           -2.88007463138788        2.06714513343445        0.83437838731229
H           -1.18451185011427       -3.21140930918912        0.81296328973846
H           -1.15850370224517       -3.17663038793081       -0.97339779760721
H           -2.56980003563353       -2.55480367002717       -0.08875595596482
H            1.35409452781285       -2.94372402314022       -0.01371593664493
25
 energy: -4.592310180769 xtb: 6.6.1 (8d0f1dd)
C            3.25327215493092        1.21156594080214        0.06034187665826
N            2.30813831803541        0.12634414733944        0.01744618041025
C            2.60467219978571       -1.23881987968040        0.06804749911369
N            1.41433553852072       -1.93873121492563        0.00819552479807
C            0.39302995680663       -1.06487429753122       -0.00841823227318
C            0.91444325502304        0.22458055210436        0.01189647948446
C            0.10721082606058        1.37646728276043        0.01950855874732
O            0.47354968997972        2.55365213423908        0.05402562126386
N           -1.27865293969639        1.03231476346654       -0.01572382009209
C           -2.22190317562526        2.13516290391471       -0.02418495293734
C           -1.83050034815319       -0.21031770513623       -0.04549267563808
O           -3.03045186314217       -0.39573337209596       -0.07589684282927
N           -0.94808053608280       -1.30931442134847       -0.04062739677138
C           -1.48786345544231       -2.64960117982966       -0.07811057642672
H            3.52050938862167        1.45852470959951        1.08963404312250
H            4.15792953256892        0.89955908669945       -0.48041268670006
H            2.87265463783810        2.17220220813561       -0.32562668861093
H            3.56926601210980       -1.68630689085789        0.06033763743604
H           -1.64595596796691        3.05859586950824        0.00591701577853
H           -2.82520893525310        2.09746629203491       -0.92891696624207
H           -2.88087641801077        2.06380738814292        0.84081902255977
H           -1.18971828249714       -3.21665497739190        0.80693767203526
H           -1.16312900194571       -3.17725243650019       -0.97887612029590
H           -2.57396372459665       -2.55536888475981       -0.09359129835870
H            1.34704232494871       -2.94357750918744       -0.01455191632206
25
 energy: -3.598124740867 xtb: 6.6.1 (8d0f1dd)
C            3.25814422844637        1.22004566630439        0.05197373552189
N            2.30989786587459        0.13144706592206        0.00865671293152
C            2.60427385779290       -1.23980225600960        0.06007417078294
N            1.41161998801026       -1.93910283246825        0.01004417997749
C            0.39105774767038       -1.06605749229607       -0.00685890471385
C            0.91370010199345        0.22339450916543        0.01126174929347
C            0.10473828066397        1.37262969667858        0.02600486887398
O            0.46697518546112        2.55038350731863        0.06889757980736
N           -1.28206380330507        1.02710349186192       -0.01111032011327
C           -2.22250487819072        2.13169729825888       -0.01699988113375
C           -1.83442133605959       -0.21467438154126       -0.04498007598590
O           -3.03451578378425       -0.40063185326976       -0.07764386593675
N           -0.95077492765052       -1.31173656875994       -0.04131818760309
C           -1.49194262020838       -2.65144491833003       -0.08297419347214
H            3.46809474332796        1.51754234095591        1.08323904639815
H            4.18908136260586        0.86843969365926       -0.42533318524848
H            2.91900621433661        2.18124507339254       -0.38477187343946
H            3.56553214548944       -1.69668402248935        0.06574994731595
H           -1.64155461481258        3.05207577262868        0.01507501050913
H           -2.82493375244706        2.09920451291832       -0.92220824969780
H           -2.88204866908091        2.06048200856302        0.84762346452731
H           -1.19536475268877       -3.22169016740018        0.80056363690308
H           -1.16829262107023       -3.17778020426246       -0.98496972541939
H           -2.57813845756287       -2.55496718079398       -0.09892129123536
H            1.34034924602891       -2.94380627832387       -0.01516284303721
25
 energy: -2.452704868324 xtb: 6.6.1 (8d0f1dd)
C            3.26285836236975        1.23004046193973        0.04521069113416
N            2.31235239210156        0.13731760618545       -0.00141852756427
C            2.60317780383655       -1.23868254775044        0.04042749456585
N            1.40915572388102       -1.93969766537637        0.01208237874958
C            0.38918158415593       -1.06777429939096       -0.00451917521509
C            0.91418684065698        0.22111768263617        0.01290373411915
C            0.10251054241033        1.36781447069162        0.03338444399345
O            0.46059218440159        2.54618550624098        0.08453044627068
N           -1.28543075860406        1.02139692446082       -0.00609422288272
C           -2.22253693752339        2.12847046801121       -0.01019392960113
C           -1.83825308601461       -0.21955086113696       -0.04435017772701
O           -3.03846426406128       -0.40652398438117       -0.07826906659470
N           -0.95333825664677       -1.31478377002039       -0.04175073401185
C           -1.49661062197854       -2.65362445793539       -0.08749542815871
H            3.41563330792437        1.57626806594397        1.07457475652557
H            4.21568554716193        0.84362860472879       -0.36839748138209
H            2.96672731210417        2.18922561754922       -0.44229773463663
H            3.56048331648673       -1.70679479704795        0.06859545505069
H           -1.63613200931870        3.04539225447873        0.02570165935640
H           -2.82215905102697        2.10297562048977       -0.91709608714361
H           -2.88480508333360        2.05749846315815        0.85247246310890
H           -1.20153146784467       -3.22697077914410        0.79451289658629
H           -1.17545262288336       -3.17914685148273       -0.99096111276964
H           -2.58285154040074       -2.55381881833175       -0.10312659544889
H            1.33429089803425       -2.94435463314278       -0.01494305076861
25
 energy: -1.235604984584 xtb: 6.6.1 (8d0f1dd)
C            3.26576351696155        1.24052648566599        0.03630447841423
N            2.31558167592759        0.14178162177950       -0.01364929585711
C            2.60290859537567       -1.23839308495243        0.02190238908730
N            1.40715944937326       -1.94058054177629        0.01516569722024
C            0.38764135801753       -1.06932652620348       -0.00206951143476
C            0.91586226680012        0.21888067870746        0.01272302192316
C            0.10116582195686        1.36302849057782        0.04105063807973
O            0.45599494171554        2.54152581606465        0.09929336769826
N           -1.28809847837016        1.01626034653267       -0.00030982442726
C           -2.22246850578693        2.12534891107088       -0.00286541542114
C           -1.84148496188796       -0.22390976689560       -0.04363187184908
O           -3.04178223041381       -0.41180759429020       -0.08035329739360
N           -0.95556536480016       -1.31759592283561       -0.04178466542983
C           -1.50081936520677       -2.65570899750738       -0.09192821530748
H            3.36276591134039        1.63608628274783        1.05599573674433
H            4.23739464581706        0.82853693230741       -0.30591936804105
H            3.01408528755197        2.19386025790637       -0.50078188082007
H            3.55533448448363       -1.71755305805085        0.07172427029166
H           -1.63177567873674        3.03954024109843        0.03571787623308
H           -2.81994291659177        2.10513436824727       -0.91115258986438
H           -2.88624494539898        2.05414888009731        0.85872305886025
H           -1.20759276166071       -3.23235756443433        0.78849134410721
H           -1.18101418216488       -3.17984937733073       -0.99665786163521
H           -2.58719712462812       -2.55367827952387       -0.10803235485564
H            1.32720581124739       -2.94524917397055       -0.01316062775346
25
 energy: 0.048072209004 xtb: 6.6.1 (8d0f1dd)
C            3.26725774670241        1.25074340715689        0.02536812651173
N            2.31901806518260        0.14480389625203       -0.02729371085623
C            2.60312093067522       -1.23851583939546        0.00407557884750
N            1.40636635517026       -1.94201423453479        0.01897182245168
C            0.38675408109647       -1.07144431004163       -0.00074909889971
C            0.91790177312696        0.21625211923590        0.01147820498076
C            0.10011891329276        1.35796894811540        0.04893420716452
O            0.45215672164184        2.53623667668323        0.11422791124549
N           -1.29040714859475        1.01125287336289        0.00616677049642
C           -2.22210597188263        2.12237534471944        0.00457429119681
C           -1.84381009630193       -0.22835009637314       -0.04311226981773
O           -3.04392904466160       -0.41720029253020       -0.08357161976444
N           -0.95716808597569       -1.32077712534034       -0.04162912269501
C           -1.50500811940493       -2.65790696137265       -0.09591517478672
H            3.30962548321619        1.69257211600091        1.02884270774767
H            4.25355846520764        0.81961592137810       -0.23876703493951
H            3.06186199698431        2.19632560955670       -0.55835197814839
H            3.55023957251025       -1.72788836058502        0.07535159682693
H           -1.62729432454119        3.03391274809296        0.04582436525127
H           -2.81639562478639        2.10726429468066       -0.90578038942404
H           -2.88775150456413        2.05113893604731        0.86486466264106
H           -1.21398052520044       -3.23750196206357        0.78323373578372
H           -1.18641321446423       -3.18084098319495       -1.00167610681768
H           -2.59151298538478       -2.55351384779041       -0.11278441551594
H            1.32243349913713       -2.94686017448949       -0.01034133252986
25
 energy: 1.225403351923 xtb: 6.6.1 (8d0f1dd)
C            3.26520208297612        1.26046693754001        0.01238064260579
N            2.32119738103774        0.14662963535676       -0.04176324804904
C            2.60388246759430       -1.23707560329833       -0.01221033810837
N            1.40864287312035       -1.94290157275432        0.01876982247272
C            0.38669720005551       -1.07448581729155       -0.00251369251147
C            0.91879463256580        0.21341325452793        0.00772523644139
C            0.09876574715412        1.35293671835656        0.05687835912624
O            0.44861314812901        2.53072936824098        0.12893959033602
N           -1.29287390483464        1.00644246810393        0.01315365761867
C           -2.22203330726470        2.11943839147080        0.01211568011552
C           -1.84518308160718       -0.23296853171258       -0.04305286123431
O           -3.04485868216843       -0.42296030201126       -0.09028152227457
N           -0.95812004964476       -1.32468112624386       -0.04071403342262
C           -1.50929338635171       -2.66033281662076       -0.09913065047949
H            3.25611501443853        1.74069838599729        0.99477167737868
H            4.25755508694905        0.81981213518606       -0.17471217344732
H            3.10979935673666        2.19697311432820       -0.61205264891122
H            3.54490913153673       -1.73617785757168        0.08084839283858
H           -1.62298623759101        3.02829656016914        0.05492319529511
H           -2.81316274179146        2.10868624674542       -0.90030309671974
H           -2.88922802432294        2.04862693924608        0.87152071325379
H           -1.22148155683922       -3.24256412527864        0.77929296405171
H           -1.19143253950521       -3.18224548030372       -1.00557558921549
H           -2.59579603119660       -2.55293882298525       -0.11762692868967
H            1.32141656215980       -2.94853215639416       -0.00554652171677
25
 energy: 2.642261993785 xtb: 6.6.1 (8d0f1dd)
C            3.26309044886484        1.27003818366619       -0.00238364755430
N            2.32298411486811        0.14844627673086       -0.05772023896138
C            2.60407033252781       -1.23525478791678       -0.02873522465523
N            1.41061671395200       -1.94354047673671        0.01455961863024
C            0.38660038699211       -1.07656887000044       -0.00483634707247
C            0.91965536073414        0.21095745125684        0.00095781265863
C            0.09741891678394        1.34775923375771        0.06464353228115
O            0.44593548164303        2.52456109717975        0.14325682287448
N           -1.29528377099914        1.00167747055963        0.02109871491520
C           -2.22176918237160        2.11660828757303        0.01948726216362
C           -1.84614246953435       -0.23748659361577       -0.04286563541187
O           -3.04543372154311       -0.42784854056884       -0.09677443146030
N           -0.95858046432746       -1.32853682342980       -0.03913587322976
C           -1.51376415498347       -2.66257901249302       -0.10231744162911
H            3.19961279149436        1.78633226841472        0.95390708227815
H            4.25684606847188        0.82187943097524       -0.10913817220371
H            3.16213800649746        2.19778847929598       -0.66301520181180
H            3.53871749534307       -1.74325222217591        0.07947799481283
H           -1.61854286033213        3.02275435307225        0.06492763740443
H           -2.80795081295165        2.11053494284393       -0.89626364665312
H           -2.89271591312270        2.04726783178658        0.87661863510396
H           -1.22931854723186       -3.24764301820227        0.77523081898593
H           -1.19728863727727       -3.18367214128888       -1.00957228356227
H           -2.60025288262748       -2.55172304516727       -0.12216730887013
H            1.32636560981327       -2.95031117009950        0.00010234726966
25
 energy: 4.023644273800 xtb: 6.6.1 (8d0f1dd)
C            3.26572317369364        1.27774733503679       -0.01255743641428
N            2.32612217637709        0.14978945513115       -0.07491225998547
C            2.60572909613524       -1.23462394521903       -0.04727617676315
N            1.41425878855920       -1.94489242082659        0.00758875905287
C            0.38900404809652       -1.07910383088887       -0.00760719018838
C            0.92195769912601        0.20895886515443       -0.00587852458736
C            0.09803277868749        1.34402500300872        0.07276217528147
O            0.44618819935469        2.51975109924707        0.15812326218236
N           -1.29502984860455        0.99861326567852        0.02962338554928
C           -2.21998494153034        2.11468082681634        0.02705997193368
C           -1.84407079611591       -0.24073232479923       -0.04074293162777
O           -3.04254188522904       -0.43111064136608       -0.10288439740829
N           -0.95667126845537       -1.33208196748342       -0.03598678129204
C           -1.51789664995067       -2.66433116481912       -0.10491959455835
H            3.13798582119016        1.82924913185917        0.91728004950258
H            4.26045288327315        0.81953443374315       -0.03739602731329
H            3.22162325141163        2.19581481890026       -0.70746351813507
H            3.53767315075391       -1.73934896101100        0.07839983888264
H           -1.61317772504789        3.01806019133170        0.07458301457534
H           -2.80296957676121        2.11183120730249       -0.89103241503143
H           -2.89141956099566        2.04645013218313        0.88392922439174
H           -1.23725756928768       -3.25258352490834        0.77156026964191
H           -1.20340501806614       -3.18485131563217       -1.01308285705367
H           -2.60450732119141       -2.54996104001863       -0.12634167955057
H            1.33308399950631       -2.95241077589722       -0.00143014850897
25
 energy: 5.430331663954 xtb: 6.6.1 (8d0f1dd)
C            3.27105209854361        1.28403707051789       -0.01800978957977
N            2.33138720250937        0.14917695631362       -0.09006276878795
C            2.61002358882773       -1.23696745901581       -0.06625207057265
N            1.41876240840113       -1.94611562090079        0.00268499394954
C            0.39265606302574       -1.08101843664497       -0.00967083411640
C            0.92660577114936        0.20712058314210       -0.01024224373133
C            0.10161409553516        1.34177394564510        0.08274917073600
O            0.45167829611769        2.51595376627107        0.17450900402489
N           -1.29123490430907        0.99780556992666        0.03897308020218
C           -2.21605544773304        2.11385014073930        0.03465520982443
C           -1.83993119662690       -0.24148251139743       -0.03664800438514
O           -3.03840564465952       -0.42897339802862       -0.10124566013201
N           -0.95407811598113       -1.33468435482172       -0.03277461446038
C           -1.52199965045587       -2.66549146069786       -0.10730017721521
H            3.07198059952228        1.87099124355771        0.88241557538179
H            4.26278540690430        0.81373061683646        0.03937994124444
H            3.28763256601043        2.18955159774934       -0.74421772027072
H            3.53946822839397       -1.73950922500999        0.08363809928117
H           -1.60747812995316        3.01490083015504        0.08531220395559
H           -2.79819156552444        2.11319276220449       -0.88390282696752
H           -2.88897576979116        2.04465594124556        0.88936441518582
H           -1.24452646071901       -3.25666431037685        0.76809225556712
H           -1.20973266055277       -3.18576456125126       -1.01641346581041
H           -2.60888282223501       -2.54811936653226       -0.12995885347797
H            1.33962392375103       -2.95405135437929       -0.00478269211610
25
 energy: 6.430755341642 xtb: 6.6.1 (8d0f1dd)
C            3.27838257038016        1.28537944456864       -0.02107622208803
N            2.33777591085141        0.14575443679001       -0.10094336282986
C            2.61639338697570       -1.24045737707559       -0.08487427897877
N            1.42379760733369       -1.94610335326642       -0.00220508741832
C            0.39686193599996       -1.08168083971261       -0.01145618386178
C            0.93262415850455        0.20604595518783       -0.01504185508264
C            0.10797042452368        1.34147555629857        0.08635475138723
O            0.45843964987942        2.51443881923197        0.18919678768735
N           -1.28496070134035        0.99783771117338        0.04500621469055
C           -2.21146550756485        2.11281578736000        0.04031370991607
C           -1.83466477910642       -0.24069043853665       -0.03424844689644
O           -3.03363019066754       -0.42355286361271       -0.10136421002636
N           -0.95082049892181       -1.33620196148564       -0.02906980275239
C           -1.52544210307412       -2.66586187939092       -0.10753489924137
H            3.00794785444823        1.90000053335561        0.84604039506473
H            4.26499322996320        0.80919537554579        0.11086624373470
H            3.35687679303221        2.17528091430608       -0.77125316532606
H            3.54456414470626       -1.73943596789978        0.09476517075384
H           -1.60355485174507        3.01303495512810        0.09458593279513
H           -2.79435039166523        2.11318504930091       -0.87834938380979
H           -2.88479581512193        2.04158165976890        0.89213190177142
H           -1.25229584475037       -3.26046381387226        0.76637978447014
H           -1.21585781397707       -3.18591087741765       -1.01775977677390
H           -2.61214050384049       -2.54418529964291       -0.12833074744737
H            1.34716916670820       -2.95352488707578       -0.00813380741572
25
 energy: 7.284386364627 xtb: 6.6.1 (8d0f1dd)
C            3.27878110812939        1.28503638813889       -0.03499277928895
N            2.34213238709437        0.13817351915691       -0.11258313757514
C            2.62075080829653       -1.24786033313301       -0.10116997550166
N            1.42489643492518       -1.94992830690320       -0.00750996864535
C            0.39997483442881       -1.08314224268256       -0.01344525648499
C            0.93758095393705        0.20355031558242       -0.02293198453150
C            0.11495276509164        1.34135011292596        0.08274397272221
O            0.46758561003732        2.51254392851233        0.20014589977683
N           -1.27720913514383        0.99817747120980        0.04707556583279
C           -2.20604751877798        2.11173218547533        0.04376057854631
C           -1.82965207293591       -0.23918329214554       -0.03298562853778
O           -3.02923348328897       -0.41737037866534       -0.10120162853308
N           -0.94801697824769       -1.33711105630542       -0.02540053631519
C           -1.52760602479051       -2.66604519659150       -0.10479580506670
H            2.95057903803500        1.91425951346895        0.79745533694301
H            4.25363364460143        0.81475645472647        0.17297960087753
H            3.41630082498883        2.15845220852297       -0.80634575968622
H            3.54582100751155       -1.74403569668971        0.10847922845258
H           -1.60024092043080        3.01204425605657        0.10463464451175
H           -2.78750994094536        2.11126500161678       -0.87681120010511
H           -2.87944417593709        2.03780989780021        0.89419665723312
H           -1.25890548822372       -3.26488569107371        0.76648404829424
H           -1.22409356227313       -3.18553422115502       -1.01741054952246
H           -2.61306049497192       -2.54094614900241       -0.12260282778181
H            1.34396558108873       -2.95707173849253       -0.01207861974170
25
 energy: 7.964581473263 xtb: 6.6.1 (8d0f1dd)
C            3.27308799185753        1.28415550961082       -0.05249581977988
N            2.34501909886625        0.13024995038871       -0.12624806432072
C            2.62337273372992       -1.25647528298294       -0.11221823806415
N            1.42418509252031       -1.95421136121239       -0.01210432018624
C            0.40213490486613       -1.08441254458320       -0.01529471949383
C            0.94082843651500        0.20162923476781       -0.03125191514181
C            0.12125519018903        1.34074589797431        0.08093734320195
O            0.47734743955182        2.50974649355290        0.21089417416391
N           -1.26972336231905        0.99907437552341        0.04454306970176
C           -2.19979880123987        2.11153200280624        0.04509706597847
C           -1.82546142303508       -0.23736351911454       -0.03225207757002
O           -3.02571004262617       -0.41133431512732       -0.09925701555321
N           -0.94607065639705       -1.33757459356594       -0.02086169572203
C           -1.52796703261084       -2.66589798706663       -0.10056467487192
H            2.89419204872862        1.93058128874834        0.73616077377075
H            4.22826662182459        0.82921867692280        0.23151869187131
H            3.46856333145632        2.13471344237349       -0.85735180640806
H            3.54564890323530       -1.74501613344103        0.12460441673399
H           -1.59976396496209        3.01438427326636        0.11612980956396
H           -2.78143201964807        2.11168902920597       -0.87527465969853
H           -2.87253743947992        2.03330032534331        0.89580100074115
H           -1.26604042075402       -3.27011671339918        0.76847150393174
H           -1.22714235234539       -3.18483237026031       -1.01466244327949
H           -2.61304055086508       -2.53834801818573       -0.11746768516726
H            1.33645131144393       -2.96064941065537       -0.01304460133368
25
 energy: 7.555993512434 xtb: 6.6.1 (8d0f1dd)
C            3.26523896836648        1.28440823934121       -0.04802657835511
N            2.34766404760446        0.12554223388510       -0.13729984268111
C            2.62513947325751       -1.26120452300222       -0.12670464088091
N            1.42412860192483       -1.95785848989341       -0.01845251117251
C            0.40381345026870       -1.08583828540126       -0.01704591151647
C            0.94467241265830        0.19896155936554       -0.03584212492406
C            0.12752918362737        1.33849917062070        0.08413882745196
O            0.48865044029187        2.50667963492612        0.21448021178096
N           -1.26234998761773        1.00062732672010        0.04419377781182
C           -2.19324047862512        2.11251298572866        0.04404617467544
C           -1.82164381484199       -0.23498354039470       -0.02913570479385
O           -3.02243170005055       -0.40679368147445       -0.09277355626668
N           -0.94476416842124       -1.33682661127364       -0.01538980408380
C           -1.52889195369581       -2.66426956372710       -0.09313676784384
H            2.82950798810383        1.96049871355423        0.69027412029841
H            4.20848932075813        0.85312549685215        0.29931335907197
H            3.50742005183269        2.10463694155258       -0.87504072398867
H            3.54451946597787       -1.74082563147311        0.13708853361045
H           -1.60145057848898        3.02092807390569        0.11559146461460
H           -2.77426762049554        2.10848517264296       -0.87715072015551
H           -2.86639551485832        2.03293405788092        0.89435258071178
H           -1.26581574081499       -3.26773258608556        0.77662175461689
H           -1.22835584993088       -3.18428009849062       -1.00651430737279
H           -2.61359861315142       -2.53421679109721       -0.11042125557514
H            1.33542008593208       -2.96441705365527       -0.02222248114969
25
 energy: 6.208174432817 xtb: 6.6.1 (8d0f1dd)
C            3.25924182744439        1.28224846480019       -0.04592301577982
N            2.35006380315244        0.12112240708467       -0.15057289184529
C            2.62681783157865       -1.26441741715831       -0.14313056113982
N            1.42494669541459       -1.96037354839123       -0.02365298433506
C            0.40539376270446       -1.08646282336310       -0.01628865153085
C            0.94836964053400        0.19700879198480       -0.04157194281047
C            0.13194072516949        1.33696932739354        0.08324675353924
O            0.49431417138059        2.50658200384687        0.20177601181462
N           -1.25688498751566        1.00115851319946        0.04488761474054
C           -2.18722160635112        2.11437730339625        0.04492284591319
C           -1.81821176214797       -0.23367503465647       -0.02571662814215
O           -3.01916214338234       -0.40561505302132       -0.08477480612875
N           -0.94221558722631       -1.33586414453279       -0.01363190373126
C           -1.52764881571633       -2.66296574833869       -0.08651470982799
H            2.77090229027070        1.97394985323085        0.64045171312066
H            4.18788506086788        0.87927805934094        0.36909839658146
H            3.55582908558612        2.05644139309634       -0.88564593255061
H            3.54203719316909       -1.73599320545703        0.15098280719809
H           -1.59504845017474        3.02338449201896        0.11600871672201
H           -2.77255469594090        2.11048073874900       -0.87370668039313
H           -2.86079355204668        2.03886711640466        0.89674554295460
H           -1.26555518559478       -3.26608852302258        0.78482209871591
H           -1.22900131294991       -3.18540399279547       -0.99883778889470
H           -2.61208566182307       -2.53166649471347       -0.10415699670388
H            1.33734269080880       -2.96653031835908       -0.02618936579831
25
 energy: 4.768912803271 xtb: 6.6.1 (8d0f1dd)
C            3.25082447088097        1.27972638374716       -0.03823688680230
N            2.35177571134195        0.11619563294759       -0.15434669147254
C            2.62811120881492       -1.26717049913919       -0.15699789589924
N            1.42493482424165       -1.95985765812768       -0.02144585725107
C            0.40619554888237       -1.08564543668504       -0.01308800168437
C            0.95020282905663        0.19632353096773       -0.03921308303849
C            0.13322512645401        1.33786386352654        0.07529764766696
O            0.49609502237253        2.50838797718088        0.18507691660723
N           -1.25517667189950        1.00346881129889        0.04338813153589
C           -2.18440243775071        2.11810010325230        0.04721327722037
C           -1.81764857762391       -0.23246854998779       -0.02430161730217
O           -3.01840326822334       -0.40665540975455       -0.07930913562273
N           -0.94052058366892       -1.33321598424679       -0.01463075290190
C           -1.52332137684085       -2.66030338706348       -0.08555755385408
H            2.71391959320035        1.98306799512878        0.59199335347862
H            4.16388106952880        0.90530895201332        0.42256592437577
H            3.57346500944986        2.01897804387022       -0.87690022088299
H            3.53882491844626       -1.73129408255932        0.16449522121194
H           -1.58609150557995        3.02378603040132        0.11259966347068
H           -2.77454622945179        2.11331836885646       -0.86855899624809
H           -2.85694373793867        2.04289614234280        0.90099586150233
H           -1.25877202678316       -3.26156687492733        0.78641918479388
H           -1.22486981829946       -3.18284745978438       -0.99768748789397
H           -2.60743280472487       -2.52910218823355       -0.10147481149466
H            1.33907607121386       -2.96550960348369       -0.03267783373980
25
 energy: 14.352708989929 xtb: 6.6.1 (8d0f1dd)
C            3.25822746941010        1.27294133267291       -0.04169418886996
N            2.35062165350226        0.10615299805282       -0.13038939725285
C            2.62133417242789       -1.28097455382705       -0.14622730490890
N            1.41605281076790       -1.97317449041582       -0.02091121128260
C            0.40105613265027       -1.09480972374009       -0.00897874396783
C            0.94767452288412        0.18619878659554       -0.02433739143927
C            0.13192544674513        1.33022307076887        0.08280405140694
O            0.49867682947756        2.49934077276229        0.18777353486643
N           -1.25562134277240        1.00130764898811        0.04638548225584
C           -2.18333902504577        2.11776524369471        0.04759720994349
C           -1.82037190003301       -0.23423327404971       -0.02417959812603
O           -3.02123313325129       -0.40486655273351       -0.08286091605321
N           -0.94620276007335       -1.33702925090271       -0.01367438045322
C           -1.52864635349276       -2.66358120931477       -0.08657698914805
H            2.70310743754112        1.99174202480635        0.54968136106529
H            4.16705666325125        0.88360243921374        0.42901340210242
H            3.63548010133081        2.11985090567144       -0.89678191978650
H            3.52928230930869       -1.75009054134398        0.17378936031060
H           -1.58693494080573        3.02572756273842        0.11207821907694
H           -2.77218429368630        2.11138922544474       -0.86936613989747
H           -2.85765371276961        2.04172839360572        0.89950455774913
H           -1.26135132339997       -3.26347778569097        0.78540088574067
H           -1.22794199792706       -3.18360660481279       -0.99925547282865
H           -2.61297233787182       -2.53395360944878       -0.10318732099771
H            1.32617187680493       -2.97914401999165       -0.03857317731089
