25
 energy: 29.837382518598 xtb: 6.6.1 (8d0f1dd)
C            3.88458815534098        2.97344853234532        0.19855672792447
N            2.26185409860159       -0.61459401032405       -0.02499699782728
C            2.33107593078354       -1.90307373396122       -0.02846126765951
N            1.08938847366928       -2.50217141802860       -0.04184167525962
C            0.19167867952737       -1.48295744950916       -0.04768996136830
C            0.92939370152917       -0.30888864321066       -0.03752813261726
C            0.27709593519017        0.97609909075197       -0.03704351405041
O            0.79405950324148        2.06750593264019       -0.03137527113333
N           -1.12513284525097        0.84051458573873       -0.04381985193501
C           -1.91583503632523        2.06433553115705       -0.03895609466119
C           -1.86470385142560       -0.32030329686718       -0.05200714855422
O           -3.07513766284220       -0.31075532910936       -0.05350424440798
N           -1.16385678019610       -1.52620742310031       -0.05901825448644
C           -1.89533801793314       -2.77440053836541       -0.07094016005422
H            4.23216815387050        3.22695919783317        1.17695233017858
H            4.56625750501970        2.99571579227296       -0.62461341590085
H            2.86556065255448        2.69136988505479        0.04742389701436
H            3.24131664870246       -2.46634425814572       -0.02128408740241
H           -1.23040233148938        2.90726475577865       -0.09265667512816
H           -2.59281207355240        2.06780876794911       -0.89242907186843
H           -2.50953786883152        2.11920104075648        0.87326713874283
H           -1.65755079894831       -3.36696897317895        0.81449049012637
H           -1.66456019969302       -3.34656578412281       -0.97165833792063
H           -2.95624678411679       -2.52736181646333       -0.06411516865278
H            0.89889111754647       -3.49060164914766       -0.04971734090429
