25
 energy: -42.132034205150 gnorm: 0.001891400427 xtb: 6.6.1 (8d0f1dd)
C            3.18447209729273        1.20122812673138        0.01955375879604
N            2.20081136512756        0.15638266987421        0.00641692028974
C            2.42332624395505       -1.17939298974328        0.00692165691355
N            1.31720978672842       -1.88647441807107        0.00448055310015
C            0.31126395782282       -0.98603326356095        0.00317877058752
C            0.84851881015037        0.31251146309280        0.00469884396908
C            0.01125091071721        1.48695569320933       -0.00369904815238
O            0.39920536238406        2.63359719748090       -0.01125473488725
N           -1.34248249955505        1.15026930482239       -0.00403921593469
C           -2.30128090317556        2.24114503146201       -0.00788297343448
C           -1.89598058701063       -0.12597266394534       -0.00076127615335
O           -3.08732583954813       -0.29115040367800        0.00006085936196
N           -1.01450218641573       -1.21354387641866        0.00086784187019
C           -1.54147202429944       -2.55577792735060       -0.00050656623050
H            3.73697365821204        1.18843111932965        0.96153080339772
H            3.89211304595724        1.06264433113002       -0.79910408478208
H            2.68441276645788        2.16384767110263       -0.08715547345522
H            3.40623723931562       -1.60931650476046        0.00858823472680
H           -1.74983084748459        3.17984682879922       -0.00332100466175
H           -2.93543018031471        2.17939492440009       -0.89394894100957
H           -2.94561881202432        2.17580156180421        0.87044811106874
H           -1.17713664280034       -3.09619919556557        0.87420990866287
H           -1.20573781286844       -3.08407906359022       -0.89423015530726
H           -2.62851369533944       -2.50023901043337        0.01621751639388
H            2.56994830081662       -4.78563806452336       -0.04009868722968
