25
 energy: 46.445445149340 xtb: 6.6.1 (8d0f1dd)
C            3.41405216333005        1.66820158895458        0.12518290394178
N            2.70436605537500        0.38914897057672        0.01944800038451
C            3.13095650413242       -0.87588513162040        0.07188450540473
N            2.09717790960314       -1.76074428073029        0.03502439276328
C            0.91259684007909       -1.03446892526574       -0.03821941271022
C            1.34186043842994        0.30996622324204       -0.06517552605541
C            0.39847569695868        1.38049851617571       -0.12304519631575
O            0.68957829821925        2.57084699279323       -0.16775817798308
N           -0.87142345866127        0.87432642868787       -0.11543202770999
C           -1.99090739437895        1.79679369454276       -0.06115738263026
C           -1.29016955714198       -0.47999249602610       -0.06076112733837
O           -2.49305598991061       -0.59826528565977       -0.01059865071516
N           -0.33539181310924       -1.47043168834432       -0.05315340275932
C           -3.60422785744272       -3.31747223023676       -0.10388139559916
H            4.30369674555057        1.59137666568718        0.74101230761337
H            3.74128849732609        2.06844351891335       -0.83553237124157
H            2.74285822733718        2.43362089412336        0.51114673979770
H            4.14419142489372       -1.20089725411514        0.15401663058377
H           -1.60746417436841        2.81610528789431       -0.04289613634933
H           -2.64600287845253        1.61801451715945       -0.91834748659063
H           -2.57016313225264        1.59956793205020        0.84643208697969
H           -3.69883749462021       -3.81884836026087        0.82455125167270
H           -3.65428400592388       -3.86447952265639       -1.00903591302097
H           -3.74019513903764       -2.25770637892849       -0.12864157143868
H            2.16292015953564       -2.77795242957643        0.11602107799156
