25
 energy: -1.910869821755 xtb: 6.6.1 (8d0f1dd)
C            3.26325034960756        1.23431487962170        0.10312890524053
N            2.35579248808034        0.11515752059138        0.02316569023650
C            2.65452313643901       -1.24873688131919        0.03546637833640
N            1.46528063727466       -1.93856194632210        0.01192652686545
C            0.43153029459996       -1.08163987201950       -0.01893124015961
C            0.95638491730086        0.21852193415799       -0.01188825331756
C            0.12623589041997        1.35457518959151       -0.02635974899833
O            0.44125951159956        2.54932837604375       -0.02858248479367
N           -1.26199367988166        0.98686718958573       -0.04057139846396
C           -2.20311406056764        2.08955701549630       -0.04850017752956
C           -1.80331733902704       -0.25434469689079       -0.05613595046751
O           -3.00654629673218       -0.44634545143851       -0.07353922691571
N           -0.92137819192559       -1.36005352239398       -0.04814099411586
C           -1.64643397417256       -2.62389159423228       -0.06011773402846
H            3.79521535238165        1.27054122547014        1.06109912163902
H            4.01527967831202        1.21752001220006       -0.69618316192895
H            2.68181462306597        2.15960524652505        0.02664182900317
H            3.61233529751897       -1.72014012644259        0.05283510620757
H           -1.61974523574635        3.01192962558504       -0.02804195178018
H           -2.81051462450350        2.02873486614125       -0.94946920248650
H           -2.84049512437287        2.01434111819501        0.83009219712683
H           -1.47201185983614       -3.22446685182605        0.83581924862058
H           -1.44670783934634       -3.21892556403513       -0.95431781102311
H           -2.69364238653013       -2.35480113590658       -0.07592317433101
H            1.35332448121332       -2.93653777248279        0.02409407188547
