25
 energy: 44.061497254444 xtb: 6.6.1 (8d0f1dd)
C            3.44962768368041        1.67209092247677        0.11857063497955
N            2.73137531954010        0.40605702749985        0.03092659230624
C            3.16531775117954       -0.85191221890188        0.07596118041899
N            2.13452370704963       -1.73576683088658        0.03660785629612
C            0.94774514461096       -1.01140706981492       -0.03072605032150
C            1.36806155264921        0.33467417652013       -0.04890908301301
C            0.40916769729130        1.39396709483584       -0.10133067553021
O            0.67545282426298        2.58874348303694       -0.13141343136427
N           -0.85219618314693        0.86713460618994       -0.10687486609505
C           -1.98329194377256        1.77371392230761       -0.07036857246155
C           -1.25987200838866       -0.48867031020772       -0.05784270483629
O           -2.46027264714087       -0.63951551001307       -0.01841548080476
N           -0.29215584420551       -1.45954823103385       -0.04838286469493
C           -3.71313416276327       -3.40230760523729       -0.10962014804303
H            4.30721231665922        1.61346389161045        0.78040551137029
H            3.82982300562786        2.01949100781167       -0.84299586291356
H            2.77002168137327        2.46364661082332        0.43875819495112
H            4.18402380971193       -1.16508374336375        0.14913471410451
H           -1.58841937537504        2.79173456915033       -0.05131936586633
H           -2.62992641931825        1.58413574014935       -0.93509013058307
H           -2.56466077777258        1.56594046889924        0.83508273168293
H           -3.85588743595961       -3.89200066486048        0.81729646315271
H           -3.81560597044145       -3.92955170772033       -1.02047316470562
H           -3.74390979124671       -2.33964327126920       -0.12933390200238
H            2.20671421095654       -2.74991871689989        0.12129414556239
