  72
        -99.36011845
 N         -1.9687592439        2.8930670690        2.5008883039
 C         -1.8749744099        2.1963095950        1.4695859657
 C         -2.9560948965        2.0489974437        0.4348249708
 C         -3.4287096673        0.6038806357        0.3981860439
 C         -4.2720687446        0.1761742458       -0.6291913761
 C         -4.7513996674       -1.1222810007       -0.6794294232
 O         -5.5757828718       -1.6120948512       -1.6273943314
 C         -6.0972452762       -0.7429210783       -2.6051632624
 C         -4.3705649128       -2.0485865064        0.3296828756
 O         -4.8795456053       -3.2890732649        0.1994736267
 C         -4.6269730239       -4.2437982071        1.2041575774
 C         -3.5335144721       -1.6169615289        1.3465725563
 C         -3.0724800520       -0.3071901412        1.3806742177
 C         -2.3013788154        2.4326727566       -0.9187370219
 C         -1.3420913499        1.3718822670       -1.4863520512
 C         -0.0630878069        1.2789541819       -0.7493888040
 N          0.5602889955        0.1539605076       -0.4331369425
 C          1.8920637190        0.1934999222        0.1262315571
 C          2.9729133924       -0.0000081455       -0.9532118552
 C          4.3361549419        0.1661199444       -0.3395161834
 C          4.8227750856        1.4404044518       -0.0751654461
 C          6.0647558448        1.5971325610        0.5163542382
 C          6.8242206381        0.4950218854        0.8389945235
 O          7.0610670449       -1.5522922068       -2.2093671852
 C          8.2204388744       -1.2504639860       -2.2329163502
 C          6.3517672225       -0.7939162423        0.5707981179
 O          7.1792888097       -1.8044735367        0.9052497378
 C          6.8050308155       -3.1312887392        0.6052411680
 C          5.0942243258       -0.9474086941       -0.0080600241
 C         -0.0146642693       -1.1420674750       -0.7034640759
 C         -4.1929590988        2.9577167664        0.7008785871
 C         -4.9034449644        2.5686100605        1.9950545337
 C         -3.8535489914        4.4453072839        0.7270033259
 H         -4.5707903009        0.8748363418       -1.3929233762
 H         -6.6509247540        0.0845338323       -2.1515399576
 H         -6.7783834934       -1.3482686900       -3.1999047625
 H         -5.3090659168       -0.3461088763       -3.2533710359
 H         -4.9960576712       -3.9075974000        2.1775260425
 H         -5.1698987348       -5.1367989880        0.9010421088
 H         -3.5600092023       -4.4768878855        1.2781663929
 H         -3.2433679477       -2.2917515835        2.1354366994
 H         -2.4501328538       -0.0008861978        2.2071530867
 H         -3.0892721695        2.6023611259       -1.6517312620
 H         -1.7613839371        3.3718617909       -0.7933647048
 H         -1.8481021318        0.4091408302       -1.5357713947
 H         -1.1056984191        1.6775152972       -2.5140857735
 H         -0.9596113570        1.6440560379        1.1805418758
 H          0.4749954337        2.1978509822       -0.5671662835
 H          1.9861935226       -0.5893482800        0.8827130931
 H          2.0496274983        1.1582718989        0.6134765931
 H          2.8265118464        0.7486202204       -1.7343314432
 H          2.8790631467       -0.9891770926       -1.4014188467
 H          4.2414441454        2.3092728766       -0.3433773393
 H          6.4454519716        2.5864196814        0.7210003832
 H          7.7884638357        0.6045366264        1.2901741713
 H          8.5587887123       -0.2050752448       -2.2905365290
 H          9.0284503573       -1.9972396379       -2.2132651969
 H          7.6505808244       -3.7490821589        0.9014723067
 H          5.9208087615       -3.4338299953        1.1746138345
 H          6.6168793044       -3.2528338744       -0.4650248251
 H          4.7120233897       -1.9303595285       -0.2286936958
 H         -0.1236344667       -1.3084956512       -1.7769850938
 H         -0.9972861695       -1.2298156881       -0.2329438833
 H          0.6339167008       -1.9141434031       -0.2983135739
 H         -4.8878083708        2.7835250815       -0.1287618664
 H         -4.2556227465        2.7537665783        2.8458810940
 H         -5.1873443113        1.5190184855        1.9883563274
 H         -5.8040677541        3.1658761504        2.1096676649
 H         -3.1417367995        4.6556384429        1.5191529390
 H         -3.4479029732        4.7873109371       -0.2213566180
 H         -4.7589934919        5.0129165946        0.9248566261
 H         -1.1648250563        2.9452468637        3.1183195959
