  25
        -42.14667176
 C          2.8478221685        1.2512482983       -0.5166352529
 N          2.1033458066        0.0556998817       -0.2293673299
 C          2.5644976388       -1.1742715117       -0.3070684767
 N          1.5984428622       -2.0500515100       -0.0345387409
 C          0.4032068488       -1.3888187070        0.2731990634
 C          0.7378658061        0.0139581292        0.0858931411
 C          0.0167294010        1.2043626365        0.2223919816
 O          0.3618916301        2.3488548099        0.3309795857
 N         -1.5275664715        1.0012043142        0.1335292399
 C         -2.3281724951        1.8056298436        1.0511585101
 C         -1.9290647807        0.5028117590       -0.9389858847
 O         -2.1432343496       -0.0219168661       -1.9432637416
 N         -0.5715327466       -2.1104390223        0.6512077875
 C         -1.8338098286       -1.7831499053        1.2007709913
 H          2.8362463225        1.9232197594        0.3419306926
 H          3.8745867927        0.9888388835       -0.7611816157
 H          2.4002893905        1.7796226024       -1.3600740239
 H          3.5771591321       -1.4330658804       -0.5541835220
 H         -1.8301443497        2.7688426370        1.1738861597
 H         -3.3312206545        1.9520460163        0.6600312626
 H         -2.3768115699        1.3007549138        2.0161708842
 H         -2.1864326099       -2.6746983290        1.7225689883
 H         -2.5702809008       -1.5486732367        0.4259763276
 H         -1.7814651145       -0.9556525598        1.9135896841
 H          1.6837135483       -3.0540419450        0.0171283330
