25
 energy: 0.000000000000 xtb: 6.6.1 (8d0f1dd)
C            3.23720132972391        1.16630909158653        0.08434468864950
N            2.29877796055224        0.07527476373246        0.03981602671198
C            2.58028186251803       -1.21425391179017        0.03006175752192
N            1.43813944744728       -1.93419254010258        0.00098261751768
C            0.39035684826767       -1.05887462812143       -0.00790371763344
C            0.93510047688824        0.21347817468824        0.01709077332874
C            0.09450143016486        1.40504290868848       -0.00410946993748
O            0.49712746915594        2.54126690785742       -0.00342325656480
N           -1.25076628431515        1.06271869620815       -0.03085477937476
C           -2.21907191394203        2.15522079838987       -0.05001256521996
C           -1.81739470187490       -0.20012724136556       -0.04692818139228
O           -2.99983858926755       -0.37846413507442       -0.07008877579474
N           -0.92618577614240       -1.30210203518959       -0.03682761236648
C           -1.46982251276835       -2.64643077634382       -0.06029819901142
H            3.71247229913541        1.21471443890471        1.06488839270555
H            4.00791460421487        1.03430799217987       -0.67357688121503
H            2.69909982127087        2.09770098766290       -0.09130154035862
H            3.56654087521359       -1.63682977417947        0.04233139674524
H           -1.67107945562430        3.09322822573871       -0.02552706696334
H           -2.82428927394145        2.09428605349656       -0.95318074103337
H           -2.87644002486466        2.07745706351925        0.81450059976605
H           -1.17061985538665       -3.19584861009707        0.83242224714061
H           -1.14560246782873       -3.17511580834413       -0.95688266944647
H           -2.55549768731684       -2.55659960601237       -0.07459039105944
H            1.38130842369251       -2.94313824728853       -0.01389874052104
25
 energy: -5.332501879891 xtb: 6.6.1 (8d0f1dd)
C            3.25091577989651        1.17233228531253        0.08777039693898
N            2.31105334748083        0.09361816912510        0.03785756930052
C            2.60220216879270       -1.23473125247848        0.02932765805392
N            1.42968657018158       -1.94139266122045       -0.00139475246686
C            0.39823484905116       -1.05619356795542       -0.00884558066671
C            0.93178573589786        0.22244809128924        0.01583696252621
C            0.09863933190983        1.39558673729825       -0.00247194970868
O            0.49608775448725        2.56086570500757       -0.00086465320200
N           -1.26734090864125        1.05457006882214       -0.02814104985749
C           -2.23143859678268        2.15193059526597       -0.05340307129377
C           -1.82715821629203       -0.19894690407506       -0.03981634265849
O           -3.02330986236303       -0.38448914403956       -0.05795605921016
N           -0.93329525923491       -1.29918831682417       -0.03546967131676
C           -1.46723119737557       -2.64301621969356       -0.06166846366944
H            3.72285466305822        1.22300536705010        1.07230210678598
H            4.02485900784974        1.03096557339765       -0.66774353202877
H            2.70990468215323        2.09763420413227       -0.09748618589814
H            3.58064334896722       -1.66191616036102        0.04080712265597
H           -1.67312695775079        3.08513899486337       -0.03246843412826
H           -2.83876052736104        2.09911029321411       -0.95727893835294
H           -2.89339255974628        2.09038592252150        0.81028956277354
H           -1.15669780453463       -3.19932511377130        0.82477138217852
H           -1.14400012798455       -3.16921307497461       -0.96188079819644
H           -2.55237575990936       -2.55479476747664       -0.06814640453524
H            1.36347484322248       -2.94535603568547       -0.01689296182894
25
 energy: 2.597763371599 xtb: 6.6.1 (8d0f1dd)
C            3.37765539540667        1.12329755786405        0.12254585304219
N            2.35249439175491        0.12541177617634        0.01633282526505
C            2.62271034357192       -1.29462329085188        0.01248410744692
N            1.37311306840849       -1.91913255488429       -0.03727781925076
C            0.40881814882100       -1.01145675025408       -0.01734764396468
C            0.92203133846118        0.28257996277830        0.01453107448080
C            0.07248470222074        1.37909541376283        0.02913955737492
O            0.36489747523190        2.59125253941987        0.03398763129836
N           -1.39402333954228        1.05557295739263        0.01922959721965
C           -2.34859635464035        2.16431641008151       -0.11391839059739
C           -1.88240105554954       -0.19248178658485        0.08744276122872
O           -3.07736133786679       -0.46166352100515        0.17415309932216
N           -0.95080034520430       -1.25122344792640        0.00377940108794
C           -1.39760398190861       -2.61722272521214       -0.08511428345864
H            3.75972365685208        1.24910330129374        1.15412662741005
H            4.25526976153963        0.87996486334103       -0.51374196585008
H            2.94993328186611        2.08099206102311       -0.20968413587684
H            3.57069206338723       -1.77711223591987       -0.00745088572412
H           -1.75095135319989        3.07508055330344       -0.16942750319532
H           -2.95937538225590        2.07739373122523       -1.02053014277270
H           -3.05407285717457        2.23687596360644        0.72911367458179
H           -0.92035567107525       -3.25809632950886        0.69021635944076
H           -1.16149448116690       -3.03673259070100       -1.08206157931707
H           -2.48556770676995       -2.59266787713941        0.06922277753143
H            1.26499454380494       -2.91949519253644       -0.07271708452855
25
 energy: 15.516396840504 xtb: 6.6.1 (8d0f1dd)
C            3.44440343597445        1.08749895220628        0.14238620668018
N            2.37116608503927        0.13323510397272        0.00377470948057
C            2.62338003147641       -1.31904470686765        0.00212705412195
N            1.35005798233262       -1.90426579831062       -0.05677012133671
C            0.41176083059004       -0.98822643097998       -0.01964112290555
C            0.91949960017326        0.31270750669921        0.01771425880627
C            0.05605067529227        1.38189625950587        0.05013755560210
O            0.28810441951801        2.60402669800853        0.05990290084062
N           -1.46498229994635        1.06546876006900        0.04331854601833
C           -2.41477816108688        2.17742191892358       -0.15075821846218
C           -1.91214171921047       -0.18917915742638        0.16130586010929
O           -3.09662758217620       -0.50853204323843        0.31452519763886
N           -0.95479019686538       -1.22449617363856        0.02780881813910
C           -1.35537771171813       -2.60363476810578       -0.09948324153733
H            3.76648904065862        1.26124262124847        1.19948373581173
H            4.37799527998131        0.78069625364471       -0.41718688466741
H            3.09380591139300        2.06366201969599       -0.27842248516616
H            3.55811111204663       -1.82980147435583       -0.04424622850954
H           -1.80260245213960        3.07792030527966       -0.25141093211109
H           -3.02723084658954        2.06171971721868       -1.05742213509162
H           -3.13898057650253        2.32148919181053        0.67978697480482
H           -0.78989541157789       -3.28521529632913        0.60815041869370
H           -1.17634178715708       -2.96111427013623       -1.14742132416529
H           -2.43987112703102       -2.62146155675062        0.14654602482281
H            1.22500977249779       -2.90498484339982       -0.10717165542291
25
 energy: 33.738279364745 xtb: 6.6.1 (8d0f1dd)
C            3.57335537439579        0.94237499458865        0.19286207611268
N            2.42079074900255        0.09468110366484        0.00613027068498
C            2.60169812420887       -1.24334643512611       -0.01148554297811
N            1.40282902536149       -1.86595254672205       -0.11247771253864
C            0.40038440725034       -0.93749238935509       -0.02670688508518
C            0.97568263617587        0.34350653234706        0.05380911648116
C            0.08586314912785        1.46838596256438        0.08969597262587
O            0.22120603437039        2.65947260168259        0.24758482642765
N           -1.60836833830784        1.10676746648535        0.01616738760697
C           -2.60752041248457        2.19847063454395       -0.25176708050538
C           -1.99037783667310       -0.15502834145965        0.29851884954061
O           -3.04784132054513       -0.56013521333702        0.69815216606779
N           -0.92580827932318       -1.17643426467698        0.05929351602414
C           -1.29405451868095       -2.57054491511700       -0.12775011402766
H            3.68063465615005        1.24911534252750        1.23687435764621
H            4.48728447234847        0.38259691621044       -0.09297911156202
H            3.50418497906590        1.82954665036019       -0.44387127379124
H            3.53542088953142       -1.74379665720172       -0.20551057999313
H           -2.08148926513276        3.12996916273464       -0.49359879655293
H           -3.26608783012278        1.99621125284578       -1.11709538807180
H           -3.30781050204225        2.48164328325454        0.54892646159332
H           -0.57165091195083       -3.24793844358921        0.35681049590720
H           -1.31563797447590       -2.79736617196279       -1.20294402951559
H           -2.27469866595745       -2.73181049916004        0.31243207686384
H            1.31422566368047       -2.86386723735793       -0.20403714676617
25
 energy: 47.214344512471 xtb: 6.6.1 (8d0f1dd)
C            3.62327939499518        0.90773732884329        0.21720835410925
N            2.42971194278719        0.10580023215962        0.01081189992278
C            2.60777662813631       -1.24491738092947       -0.02868401790872
N            1.40134320124866       -1.86081472069648       -0.13405057550256
C            0.40697714145334       -0.92252293619619       -0.03725413945792
C            0.97663110350625        0.36057273729431        0.05857055047283
C            0.08055976103432        1.47543760004205        0.10315633279983
O            0.22104244932136        2.66037738966112        0.28615557727733
N           -1.65327415520357        1.12470583512456        0.00520559764250
C           -2.67706035963047        2.20850809953116       -0.28339146045422
C           -2.00794942564551       -0.13492974938341        0.33865567500413
O           -3.04870604974821       -0.57031502914276        0.83002904037089
N           -0.92146929240867       -1.16138534177087        0.06983863776768
C           -1.27069717907866       -2.56006163869614       -0.13815710093833
H            3.66385628925354        1.28025743334575        1.26725959970308
H            4.55302477167555        0.26957706740756        0.02848669616421
H            3.65125815288701        1.77622309141927       -0.51568798459553
H            3.53882489022562       -1.74590609280553       -0.25228442607735
H           -2.16891087553996        3.14235210045248       -0.57026275810049
H           -3.35290250835573        1.97290266165520       -1.13339156869504
H           -3.37472693351250        2.52732877475334        0.51819187411968
H           -0.49762672798399       -3.25368049549118        0.27823387392084
H           -1.36157359224961       -2.75461165925364       -1.23119157638055
H           -2.22607556805116       -2.75505791915957        0.37819985633941
H            1.31890124585647       -2.85854859942009       -0.23861404530911
25
 energy: 50.752765215798 xtb: 6.6.1 (8d0f1dd)
C            3.60596604841398        0.90837142402978        0.24245570232408
N            2.42258829628254        0.10589741225886        0.04300544983343
C            2.64809927274211       -1.25303464395858       -0.07174970367411
N            1.45079926034579       -1.89053261178463       -0.15229611582128
C            0.44316086654663       -0.98312423613981       -0.06248186958488
C            0.97546938422081        0.31001915377229        0.04678246064081
C            0.07751278501301        1.43358820785464        0.09539187968472
O            0.33377743896996        2.59650631853556        0.30524381484743
N           -1.64109946766641        1.17682024668770       -0.07374148131551
C           -2.73684982195391        2.25337340718176       -0.28043057989504
C           -1.98113504027073       -0.07072613942743        0.29125008693504
O           -3.00205116265722       -0.48316365247242        0.78631699547007
N           -0.89381634378889       -1.18462154460666        0.04932307307260
C           -1.30619415741708       -2.56464488244369       -0.12327691116257
H            3.61817001186210        1.44441226942594        1.19890995250970
H            4.48706924269196        0.25579462044647        0.24269733973388
H            3.74838510146602        1.62728901387077       -0.57209183343656
H            3.60382051409996       -1.70533360956557       -0.25893679048707
H           -2.29159634612813        3.19282417798123       -0.60784329377043
H           -3.45779126820366        1.98843005262797       -1.07411495113221
H           -3.39520122004591        2.52456559285162        0.57136880005377
H           -0.51793902346865       -3.26458499383071        0.19725659067429
H           -1.52472913972028       -2.78111358570676       -1.18227024129354
H           -2.19013510852914       -2.75155725148873        0.48481520931415
H            1.43593418216801       -2.89642595735529       -0.26854967132616
25
 energy: 56.619621291697 xtb: 6.6.1 (8d0f1dd)
C            3.60348750498121        0.93068596743678        0.20589633066558
N            2.44048636001455        0.08437165768106        0.05294341354009
C            2.66790036543443       -1.27164461210063       -0.03590306195388
N            1.46993134157742       -1.91726258973026       -0.14932766098549
C            0.45168119827245       -1.00836000825569       -0.06971199985098
C            0.98794195960551        0.28889511686406        0.04331999656078
C            0.08698391354321        1.40397632327397        0.10294949191385
O            0.31234799325100        2.56637376152310        0.34483624013581
N           -1.66152387180620        1.18413742799104       -0.06562713831777
C           -2.74021027039760        2.29066570576107       -0.25916229194879
C           -2.00846135932361       -0.06607857273250        0.26928906848917
O           -3.02073226930911       -0.50453565990942        0.74253063620008
N           -0.89139703710272       -1.18741020233680       -0.00198666373408
C           -1.30639970338572       -2.58113307006432       -0.13692712906225
H            3.54214420465292        1.55068413003943        1.09799527565315
H            4.48412172615367        0.29911584347821        0.32410041511489
H            3.78132980305419        1.55628382688264       -0.67725062190397
H            3.63379425735088       -1.73532292159268       -0.16898974193220
H           -2.28081163691406        3.23007497991702       -0.56196160034146
H           -3.47240438042708        2.06677639971681       -1.05478687130711
H           -3.39340716757747        2.56957400939187        0.59354309005489
H           -0.50530688456241       -3.28181949024821        0.14332476459135
H           -1.57636818406984       -2.79659113630076       -1.17865487855427
H           -2.15413286957789       -2.75987899024778        0.51612080404363
H            1.46121931153517       -2.92254910769366       -0.24952595487642
25
 energy: 61.234098571487 xtb: 6.6.1 (8d0f1dd)
C            3.61305485453017        0.93175362405983        0.18530193965765
N            2.44812580566971        0.07630585051295        0.06226358162202
C            2.67570192634817       -1.27733349268529       -0.02692879106369
N            1.47628785856552       -1.92743490000589       -0.14008812799643
C            0.45553513646474       -1.00942203333010       -0.06773984788928
C            0.99502778947672        0.28552710581093        0.05085694802685
C            0.09943403980065        1.39859974177070        0.12389767353360
O            0.32311611610485        2.55689441038534        0.37805436801159
N           -1.68012888876863        1.18732651189090       -0.05569031126044
C           -2.75659136847100        2.30559065257260       -0.25316188112507
C           -2.02908919764206       -0.06221795221428        0.26659547227741
O           -3.03401192026133       -0.52161436837746        0.72739805492557
N           -0.88911136703867       -1.18776923333081       -0.02523074451684
C           -1.29924998243784       -2.58673491585148       -0.14837556699745
H            3.50913729057876        1.60530401665823        1.04138941886072
H            4.49320305046653        0.30354306358735        0.36354536271322
H            3.80496821388108        1.50535401609600       -0.73065323221561
H            3.64244060712410       -1.74685477697138       -0.14092563361345
H           -2.28222605489188        3.24702985236390       -0.54200228635399
H           -3.48790222361411        2.10338754775917       -1.06047075107462
H           -3.41469674075248        2.58934022580840        0.59265408801829
H           -0.48916988076104       -3.28485739028097        0.11190150813583
H           -1.59926022549709       -2.80252760903438       -1.18478297694643
H           -2.12920488161697       -2.76681325083901        0.53301360073409
H            1.46682434771507       -2.93334790761095       -0.23378795326895
25
 energy: 66.090841773910 xtb: 6.6.1 (8d0f1dd)
C            3.62129870916979        0.93241298854933        0.15924847605222
N            2.45496244476743        0.06657009975829        0.07040576532599
C            2.68096697392248       -1.28541868388728       -0.02407756753722
N            1.48028090694488       -1.93374642638493       -0.12251912588615
C            0.45910411773700       -1.00853881318345       -0.05825451696559
C            1.00241681467960        0.28344595825206        0.05925407116930
C            0.11793244963370        1.39749677045684        0.14878490511160
O            0.33149627824331        2.55229747865119        0.41044256635659
N           -1.70705632000903        1.19125086055113       -0.03750877078430
C           -2.77609168012829        2.32171324257749       -0.24386669086913
C           -2.05467116513956       -0.06015524705703        0.26281585122513
O           -3.05356760101967       -0.54965217224466        0.70033476696088
N           -0.88608265374093       -1.18835248472607       -0.04630401658853
C           -1.28903054802922       -2.59066826987488       -0.15806297635225
H            3.49162992666329        1.64392311723286        0.96960627383447
H            4.51126960178296        0.31388819720531        0.38698291658767
H            3.81171150999445        1.46071246769084       -0.77285346136031
H            3.64545155065956       -1.76455493468926       -0.11808164892723
H           -2.27371787319657        3.26120935182148       -0.49947785928313
H           -3.49038220982199        2.15220015789850       -1.07813019580785
H           -3.45120482211696        2.60510217010613        0.58661077181100
H           -0.48497796876764       -3.28259925913798        0.09955878998742
H           -1.58771940898729       -2.81610926586852       -1.17791863027141
H           -2.10687231520977       -2.77218999225831        0.52069496154668
H            1.46506758694142       -2.94120852269486       -0.21065074314128
25
 energy: 73.094165591961 xtb: 6.6.1 (8d0f1dd)
C            3.63397482759374        0.92033801452079        0.14788893400946
N            2.46540210588396        0.05304685420863        0.09072112004131
C            2.69042483328548       -1.29346880201933       -0.02922669976410
N            1.49126807507033       -1.94008417492899       -0.10477509703485
C            0.46723822564408       -1.01098191353404       -0.04810797777753
C            1.01629349467468        0.27674736820023        0.06944908626006
C            0.15017919270648        1.39954735212079        0.16920730783703
O            0.35961056009454        2.54871846273273        0.44829094382854
N           -1.74442377721100        1.20281500640396       -0.02917431271280
C           -2.81415182898120        2.34103607513878       -0.23837566790146
C           -2.08276635914012       -0.04798953143725        0.25458167280695
O           -3.07024859325718       -0.57354884464166        0.68092131335505
N           -0.87658393385864       -1.19004294683210       -0.06295546259636
C           -1.27814624395880       -2.59054796853354       -0.16474635478217
H            3.48157267791050        1.69266565295172        0.90590059807999
H            4.51872870894270        0.31357627718053        0.41828780861455
H            3.83164574075694        1.39613867715724       -0.82765013877833
H            3.65190164375745       -1.77576757753354       -0.10842417314342
H           -2.28907243082134        3.27929039792192       -0.45165718689809
H           -3.50418199458404        2.20706358337718       -1.10392998733747
H           -3.51287746610576        2.61319226292723        0.57189394402113
H           -0.46937763996298       -3.28152912865665        0.08211924786546
H           -1.59473650260032       -2.82501213043610       -1.17839686172783
H           -2.08404483258646       -2.77681440193522        0.52795136980248
H            1.47458582171999       -2.94935977560908       -0.19275951387300
25
 energy: 77.028637663280 xtb: 6.6.1 (8d0f1dd)
C            3.63492204771018        0.91837889293094        0.15730638173180
N            2.47910929615901        0.04508758885636        0.10168097655004
C            2.70443465623143       -1.30134586649787       -0.03294905123908
N            1.50359687734959       -1.94786515124300       -0.11176990345511
C            0.47819088355168       -1.02690820609315       -0.04413224421233
C            1.03388156704670        0.26136875671079        0.07122453051447
C            0.17738706707306        1.38731442264391        0.14501505697422
O            0.36871399039519        2.54033263351802        0.42653157550973
N           -1.77736114962977        1.22084124445342       -0.05159258778362
C           -2.84209298908876        2.35804582734279       -0.24004294814819
C           -2.09571599902856       -0.02825860201400        0.24079777996773
O           -3.06691075851005       -0.55845246872297        0.69522341343577
N           -0.86561037549562       -1.19530835372345       -0.04913577655519
C           -1.27932067440268       -2.59205764265325       -0.15775042347076
H            3.51112840952053        1.66583061342861        0.93965474663979
H            4.53206541234688        0.32280670812625        0.38363028251118
H            3.81122757905679        1.41689787740632       -0.80429081788426
H            3.66827437964835       -1.77764032726663       -0.11364631440373
H           -2.31988626135108        3.29546602426962       -0.45051777205048
H           -3.52740283388642        2.21819935345069       -1.10206835602998
H           -3.54006789639747        2.61199663496035        0.58230909673948
H           -0.48484207422910       -3.29587420650804        0.12075670480112
H           -1.56774304805789       -2.83070839095192       -1.18537937690852
H           -2.11445572807290       -2.76426015407033        0.51164816978301
H            1.49069192703394       -2.95485841960924       -0.20546923082247
25
 energy: 83.998142035479 xtb: 6.6.1 (8d0f1dd)
C            3.64493313473999        0.91139479393336        0.16185072357507
N            2.49792386993329        0.03121296990180        0.11057285607780
C            2.72222294296452       -1.31427786915412       -0.03562930384018
N            1.51908807304388       -1.95914618048029       -0.11502131747931
C            0.49195016960865       -1.04016765383783       -0.04237347072991
C            1.05633692143881        0.24702790949371        0.07724066854894
C            0.21167814832242        1.37789095977317        0.12669375256793
O            0.38476889189940        2.52971163831992        0.41644115742438
N           -1.82440031577589        1.23925739606404       -0.06027991728718
C           -2.88678533428765        2.37627739728432       -0.24698231318609
C           -2.11890509990653       -0.00698960479593        0.24866108218019
O           -3.07494708429259       -0.55461281824779        0.71349211294357
N           -0.85219587308271       -1.19691470444083       -0.04043635117415
C           -1.27172912292009       -2.59202087679967       -0.15524224838832
H            3.53564244074332        1.63668769091894        0.96811122949994
H            4.55417945205715        0.32123072793189        0.35246749336991
H            3.79513388196372        1.43797962790489       -0.78921391719582
H            3.68775348695810       -1.78714231136975       -0.11935255115341
H           -2.35901105651147        3.31153538181326       -0.45022583277762
H           -3.57020309117143        2.24844507600697       -1.11004938767471
H           -3.58391846765730        2.63324985083986        0.57676353841140
H           -0.49175546553692       -3.30586098083402        0.15060432652161
H           -1.53505232853399       -2.83723912202108       -1.19082126268122
H           -2.12894066839350       -2.75266713481598        0.49202161479556
H            1.50844679936987       -2.96583337464460       -0.21225877015378
25
 energy: 92.205515199643 xtb: 6.6.1 (8d0f1dd)
C            3.66034687048269        0.90205099576555        0.16425905748660
N            2.52329293025623        0.01099750770619        0.12148722818327
C            2.74534428194170       -1.33166657734186       -0.03622032781754
N            1.53987836672173       -1.97500369041201       -0.11303443963417
C            0.50973715704672       -1.05542426051138       -0.03777309513775
C            1.08573144356717        0.22871740137028        0.08735529702255
C            0.25300472338889        1.36417149436427        0.10540255968875
O            0.40028921657281        2.51153431828588        0.41539879787514
N           -1.89005872130819        1.26466381031751       -0.06817463964864
C           -2.94634107164474        2.40566601305296       -0.25278565506747
C           -2.15796239929187        0.02090087787350        0.24900042727869
O           -3.08628403968083       -0.55553777201829        0.73596985943562
N           -0.83430035937130       -1.19904577404764       -0.03361276864371
C           -1.25795972937785       -2.59376604847457       -0.15389276388284
H            3.56003918172734        1.60667501427346        0.99145189897100
H            4.58255852505753        0.32050560926180        0.32076957700697
H            3.78105453438397        1.45582432550264       -0.77676769685270
H            3.71212750017451       -1.80163533225625       -0.12752398413079
H           -2.40386638366668        3.33441690848503       -0.44969307470102
H           -3.62482295654313        2.29173760915468       -1.12120151435452
H           -3.64416999777824        2.67124726581777        0.56834501438501
H           -0.49328319369497       -3.31787457638878        0.17484410246401
H           -1.49986947764659       -2.84517513023225       -1.19468255783424
H           -2.13336003248255       -2.74338400775974        0.47291778621749
H            1.53108793613866       -2.98156719304450       -0.21480517611510
25
 energy: 99.559323114422 xtb: 6.6.1 (8d0f1dd)
C            3.67978575451055        0.89129261618039        0.16491677737235
N            2.55613441470975       -0.01563665807486        0.13166030707537
C            2.77450034577155       -1.35219640243372       -0.03580104315063
N            1.56736071172405       -1.99510558786116       -0.10819266462161
C            0.53227531295871       -1.07341371176636       -0.03115379134727
C            1.12376816596132        0.20542865287071        0.10055081242352
C            0.30111971910919        1.34383350549225        0.08684688946589
O            0.41638730225945        2.48548624693300        0.41975486422064
N           -1.97739231701919        1.29890317071280       -0.07363836298866
C           -3.01985630311807        2.44546522541348       -0.26060183227487
C           -2.21298475306383        0.06020065475022        0.25047287882245
O           -3.10309542475856       -0.55920889522426        0.75827397707369
N           -0.80958666722842       -1.20336307714994       -0.02766684531186
C           -1.23938979806971       -2.59814330395643       -0.15366136694596
H            3.58316236487077        1.57642248118500        1.00992094828468
H            4.61550028440813        0.32311821329580        0.28945640091954
H            3.76799702280969        1.47024713681674       -0.76574751809703
H            3.74232383617151       -1.81936735103036       -0.13656950418410
H           -2.45255895284665        3.36237649904516       -0.44938178523981
H           -3.69010825571985        2.34671006452020       -1.13649894716021
H           -3.71606891913953        2.72232102243009        0.55803371946577
H           -0.49186190401762       -3.33474117680739        0.19368488621501
H           -1.46503920416211       -2.85451833855086       -1.19759942109042
H           -2.13015102417118       -2.73568638233683        0.45502070978650
H            1.55999259302311       -3.00139581570946       -0.21504617651835
25
 energy: 95.969287410661 xtb: 6.6.1 (8d0f1dd)
C            3.75825765006566        0.85598620738728        0.15804908019758
N            2.70783566851482       -0.13045415624449        0.11999137639119
C            2.92476371371621       -1.44193983588975       -0.04028124803626
N            1.73156336795845       -2.10461461259052       -0.09554394948037
C            0.65675092495984       -1.18594327797032       -0.01422878466790
C            1.29854918219208        0.08836396117178        0.12300292353918
C            0.49429618168620        1.19775913155676        0.10754467471877
O            0.41237942986314        2.35164863779628        0.41597827307103
N           -2.43793856016306        1.49458532753887       -0.03805696471810
C           -3.32484746847290        2.68411139100787       -0.29939465065642
C           -2.55636509445982        0.30795122157747        0.28033133050119
O           -3.20330847872340       -0.54729931495752        0.82303906830104
N           -0.65452942331197       -1.28718218822272       -0.00954998859522
C           -1.14091509772925       -2.66773990209524       -0.15450817819814
H            3.65585569837322        1.46518057740459        1.06179319997066
H            4.74169306289171        0.36116415121706        0.17355416882459
H            3.71922741986887        1.51784874942814       -0.72221420112578
H            3.90018229012321       -1.89458382271601       -0.13493528918737
H           -2.64011039808686        3.52783435690962       -0.45411964203387
H           -3.94912594246251        2.61774196447439       -1.20445400800323
H           -4.01343458875300        2.99578104315531        0.50653099361077
H           -0.47485774119975       -3.46427860617418        0.23967557553331
H           -1.33857281452033       -2.91917151797740       -1.20454450697081
H           -2.07937549250809       -2.72572329248040        0.39767831092892
H            1.72424081515058       -3.10799740456260       -0.20830365172015
25
 energy: 75.758767119654 xtb: 6.6.1 (8d0f1dd)
C            3.77424955116632        0.85336221324369        0.15475635954759
N            2.75417984570880       -0.15665935437639        0.11192480382518
C            2.97075899707209       -1.46341210782109       -0.04121559643276
N            1.79379241576172       -2.13906294580020       -0.09385639381000
C            0.70743835703311       -1.23235480402861       -0.01957457977502
C            1.35878387584198        0.05852320027352        0.12051505481732
C            0.60724865897027        1.16304607780533        0.12716180431599
O            0.38380453033203        2.31696452790149        0.40564676550468
N           -2.65583079952379        1.56695495852024       -0.01820322552608
C           -3.39518430643093        2.76795156513286       -0.31454824392952
C           -2.75572445478288        0.44642324566155        0.32598477073611
O           -3.22040869443019       -0.52552318120691        0.83221961847703
N           -0.55404204010360       -1.37866632410830       -0.02436137895989
C           -1.11098646731380       -2.71815448273106       -0.15720957073247
H            3.67222953011500        1.44040150027866        1.06730127958337
H            4.75477985466604        0.38342864470719        0.14790015540198
H            3.70251245747932        1.52216647626428       -0.70033912180937
H            3.94437447743891       -1.90973563612962       -0.12963361409108
H           -2.67044941102110        3.56804038132066       -0.45614647110437
H           -3.99846164857483        2.68099242028249       -1.22041032255170
H           -4.07042645359344        3.06719998674445        0.49744907037719
H           -0.47405081347717       -3.51676930323936        0.24389511565531
H           -1.31544026300257       -2.94689699303131       -1.20729486592272
H           -2.05752039525235       -2.72172729723124        0.38261850420890
H            1.76658750089414       -3.13746397968805       -0.20754600561098
25
 energy: 64.404504756962 xtb: 6.6.1 (8d0f1dd)
C            3.81673100268874        0.84235743993032        0.15366796945987
N            2.85302634564466       -0.20893857482997        0.09788503771713
C            3.11164018135041       -1.52991559539468       -0.04065310129859
N            1.93714909766233       -2.21345381257879       -0.08642294155059
C            0.84892367963409       -1.33907850238229       -0.03719710184648
C            1.45493902375524       -0.01290300681766        0.09411653786444
C            0.82624694129286        1.13914363992288        0.21921678814501
O            0.30533319565810        2.19775874597685        0.36207438762613
N           -3.06648391666665        1.70885143061010       -0.03103246049853
C           -3.59147287217808        2.95703088839312       -0.34140670178646
C           -3.17349746311535        0.62670238355501        0.51155261336069
O           -3.20731380750973       -0.44370738915634        0.85938443376240
N           -0.38819589329887       -1.56486079996704       -0.07829686409311
C           -1.04822646988581       -2.81708781676559       -0.17163910093326
H            3.71599044753651        1.38217192393251        1.10281846948624
H            4.82274108641580        0.42253084662993        0.08252306204486
H            3.66435975176087        1.55609917068646       -0.66641595076310
H            4.08357552849899       -1.95784772707528       -0.10571583301008
H           -2.75937992574000        3.64513873407866       -0.45327638597952
H           -4.15280260224749        2.89672738498719       -1.27480122017501
H           -4.24429438515741        3.31611916812193        0.45726950949679
H           -0.48913077460048       -3.66202481812461        0.25208894915990
H           -1.26953035583118       -3.03129081581354       -1.22242446771771
H           -1.99785672745219       -2.71368617613142        0.34985503859140
H            1.85974321675773       -3.20680793304349       -0.20613675486783
25
 energy: 60.778021223037 xtb: 6.6.1 (8d0f1dd)
C            3.81379632963600        0.84239491560575        0.15288068666003
N            2.84566410904871       -0.20407055016938        0.08277331359986
C            3.09725777751993       -1.52816862928638       -0.03915918471024
N            1.91478379048240       -2.20281686922170       -0.09688636813239
C            0.83005449393118       -1.32644402340859       -0.03553562464976
C            1.45345084648263       -0.00218039859755        0.09092886608949
C            0.84045126425188        1.15555854327807        0.23441349189678
O            0.24554365803266        2.17205198509167        0.34093042018631
N           -3.03870324676772        1.68764645846070        0.00161956642274
C           -3.57414321510702        2.94916374002456       -0.32824728756372
C           -3.17497316917491        0.60139204505166        0.45225499285323
O           -3.12626651237765       -0.48499935932618        0.85562689123241
N           -0.41798082978058       -1.52862265982817       -0.07219216442909
C           -1.05318722228343       -2.80542994817472       -0.16922494463297
H            3.71211891146232        1.38774711325920        1.09560624135137
H            4.81524764715229        0.41867143996821        0.09255409385258
H            3.67418964573930        1.54856707912263       -0.67028144229285
H            4.06946636430458       -1.95885868070188       -0.09544719276704
H           -2.73972378174477        3.64020060603188       -0.45058886964599
H           -4.12883322475363        2.89078592508754       -1.26823627549707
H           -4.23710530425862        3.32013739269229        0.45754402341520
H           -0.48374539639708       -3.64243288969963        0.25643743548175
H           -1.27133655792435       -3.02592033419824       -1.21908471909850
H           -2.00528454065456       -2.71526225807560        0.35463679586411
H            1.85147246815315       -3.20008185424169       -0.19628883329143
