25
 energy: -42.066478747421 gnorm: 0.004614690741 xtb: 6.6.1 (8d0f1dd)
C            3.42041361132129        0.88342636655313        0.28097833931587
N            2.08124341014002        1.25183022756389        0.34779245595900
C            1.97584366549765       -2.58289894006871       -0.46392155593118
N            1.66631423899166       -1.60038861252307        0.29634090531951
C            0.60375475725252       -0.67220323998503        0.16488960169776
C            0.92621709799865        0.71022450212439        0.26627152765486
C           -0.22268781897407        1.68873089345135        0.25118728594426
O           -0.07173384075138        2.85668740714829        0.47356121500705
N           -1.44916853683374        1.13977366737285       -0.06911161214601
C           -2.58715652104649        2.04195585488656       -0.19723489605037
C           -1.73067844075095       -0.19325051627142       -0.24525484499055
O           -2.82471457315649       -0.60436082369371       -0.51214548056651
N           -0.65465119725974       -1.09597966490929       -0.05955853817730
C           -1.02323833020234       -2.49825078769962       -0.08854878674525
H            3.82888452906089        0.80367939061576        1.29538838009553
H            3.62624642758390       -0.03909310112934       -0.27765975508018
H            3.95462987018858        1.71405262319062       -0.19430326782287
H            1.37097901197944       -2.82323981540384       -1.33090389399676
H           -2.21562615464157        3.06400027701207       -0.20649093640269
H           -3.12417998073999        1.81705254754523       -1.11812669147618
H           -3.26956772016193        1.90453530890150        0.64243669937335
H           -0.39112081406096       -3.08092884680207        0.57842414664366
H           -0.96064906508486       -2.89443269310034       -1.10407662753882
H           -2.06455546929005       -2.57916998251109        0.22534692146429
H            2.29563335704001       -1.39351350066929        1.07589102635008
