25
 energy: -42.175773801577 gnorm: 0.005317428881 xtb: 6.6.1 (8d0f1dd)
C            3.23646812915028        1.20517780410999        0.07453969170782
N            2.32970817535434        0.08938780157787        0.05622701417459
C            2.66036445720165       -1.20916086587947        0.07073919242174
N            1.53686444879708       -1.96739644772710        0.04355053519334
C            0.46179465710491       -1.12186466937134        0.01200064900447
C            0.95683273024954        0.17837753296760        0.01861751215120
C            0.10766667001577        1.33440487653670       -0.03463858234933
O            0.44094476496422        2.50108167469823       -0.06169908682502
N           -1.25182019209837        0.94320746598107       -0.05231901494913
C           -2.25076392001556        1.99799557783208       -0.08259411606162
C           -1.69471380564709       -0.33169083539323       -0.03026835056728
O           -3.01056281524556       -0.51183134926776        0.00054861991835
N           -0.87487625708062       -1.42630999186326       -0.03197886478561
C           -1.35343012959946       -2.70094833925237       -0.02628784322639
H            3.79459792862387        1.22571984443826        1.01143109645251
H            3.94155690149785        1.13267010091017       -0.75351698538241
H            2.65776877431025        2.12346770738437       -0.01840714953897
H            3.65764944335057       -1.59611748878925        0.09716573215280
H           -1.71766338717225        2.94654382066082       -0.08797131777924
H           -2.86509119314008        1.90750149440562       -0.97668963043794
H           -2.89165635839658        1.93320002605340        0.79543981589789
H           -0.67059715707751       -3.49954720459599        0.13050952724452
H           -2.33481566120378       -2.92431892544425       -0.38463110032636
H           -3.21988647899008       -1.43579542584995        0.22649457020050
H            1.51409178915206       -2.97551564252893        0.03490970361973
