25
 energy: 19.031331849425 xtb: 6.6.1 (8d0f1dd)
C            3.34599041887551        1.08357777162354        0.14407097980011
N            2.34178373586347        0.06681318525439        0.01009976171331
C            2.62872481877081       -1.29327551845206       -0.06664624322038
N            1.42866142258841       -1.96553457888102       -0.13212432343836
C            0.42587560964346       -1.06899110936989       -0.06326855139390
C            0.92356629456939        0.22253888133135        0.04638624981176
C            0.05299663387051        1.38163780358468        0.12697445904241
O            0.45271608485888        2.53737177881706        0.26597052228528
N           -1.43961617596004        1.15029556782187       -0.01751152751803
C           -2.48851691200408        2.34483052383140       -0.25435457406723
C           -1.86865227628666       -0.16407236708984        0.09558023881825
O           -3.03307825268232       -0.48767298861012        0.19394315401441
N           -0.91531833395878       -1.27260360894932        0.04193352808402
C           -1.35410456664178       -2.65908561927964       -0.00786550430244
H            3.89520837753871        1.00688159015911        1.09615719752276
H            4.08637004186229        0.98113081837734       -0.65888418661208
H            2.86270288879387        2.05306272077230        0.09764755923883
H            3.59637355476817       -1.74102883391548       -0.17169126199367
H           -1.95091536315029        3.29561288986574       -0.26671728054005
H           -3.06109315577233        2.29124277931478       -1.19262509447936
H           -3.18274735986518        2.37968024533004        0.58751349777477
H           -0.95137786068159       -3.24850327226646        0.82353306651463
H           -1.00547547874776       -3.12147062465314       -0.93898675858141
H           -2.43746573653916       -2.69551618328149        0.04973719201189
H            1.35724068826278       -2.96864437816899       -0.19567601206047
