25
 energy: 54.278564519518 xtb: 6.6.1 (8d0f1dd)
C            3.43558463916640        0.94951976510262        0.14259834217901
N            2.52240274263152       -0.15963190064405        0.04799507803838
C            2.84174294076870       -1.43283471407080       -0.12728315695711
N            1.70803940909189       -2.17877702738755       -0.13997397787456
C            0.63611678515623       -1.33440028234004        0.03319881787704
C            1.16529081512080       -0.05398951888454        0.15183538188492
C            0.26433830114193        1.12016531852166        0.27286084177612
O            0.70733468304448        2.25727742753163        0.30757163169969
N           -1.03278574576426        0.79890391947377        0.30676282983519
C           -3.63835253428613        3.68274536591601       -0.42843600499937
C           -1.59525011251249       -0.36971597442489        0.25296467422392
O           -2.75713656266067       -0.66586753650728        0.29833080453561
N           -0.65539417998206       -1.59926715322318        0.08491556357222
C           -1.21588189426925       -2.92046621284852       -0.01596719249331
H            3.95517655211960        0.92365891229655        1.10197463910634
H            4.17253540251654        0.90785798233878       -0.65962445338963
H            2.85429697709780        1.87160526893783        0.08077302744475
H            3.83220447720592       -1.81959794877490       -0.23655107075947
H           -2.76899305801671        4.29935353395586       -0.38177913540750
H           -3.97390220619692        3.30464580652649       -1.36837652144602
H           -4.12858832011562        3.38005231741103        0.46994364871851
H           -0.86851086458927       -3.56189392488072        0.79809928919608
H           -0.98118431700811       -3.38271590845381       -0.97817650889030
H           -2.29639887934555       -2.79605528135237        0.06616705440438
H            1.66426059507159       -3.17694376136581       -0.26187578818361
