25
 energy: 57.477539050286 xtb: 6.6.1 (8d0f1dd)
C            3.40730279561829        1.01186693216438        0.18127079554587
N            2.38770468863528        0.01406511403211       -0.00079193554995
C            2.66931704206006       -1.28926556486382       -0.11199267626198
N            1.50629124687828       -2.00220616222386       -0.18743814493535
C            0.46985051778415       -1.11881781594093       -0.12460601659037
C            1.00674615058074        0.15283001177534       -0.00209703107390
C            0.10472991678303        1.31857523836294        0.13401624904157
O            0.53322074866943        2.43651984180447        0.39783265475138
N           -1.24911024794911        1.03204164618967       -0.01231681565664
C           -2.85421177718034        2.72441131526958       -0.39020312001892
C           -1.77651190912467       -0.18049795871735        0.12891364279864
O           -2.92299058440765       -0.49648118507450        0.36066040838021
N           -0.83807036739565       -1.35559243120097       -0.03514571090695
C           -1.28400606342953       -2.72068678973840        0.02392094654824
H            3.95376130029105        0.83117834355831        1.11786599882255
H            4.12966689349220        0.92590234134488       -0.63322146976197
H            2.96900331257571        2.00003496809249        0.21169409536452
H            3.62540765791228       -1.70970411487570       -0.31805137523016
H           -2.17703637966667        3.53644059219520       -0.37403890259597
H           -3.32890353271657        2.51932232851339       -1.31892852127572
H           -3.43855023179273        2.58708883135055        0.47308489920140
H           -0.80156198973849       -3.26621133956958        0.83666320064662
H           -1.03861792194268       -3.21704791582940       -0.91632736155032
H           -2.36059662552329       -2.77172395185065        0.15900752619164
H            1.43707142218766       -2.99555902186356       -0.29559507335132
