25
 energy: 27.434015670923 xtb: 6.6.1 (8d0f1dd)
C            3.36281039942618        1.06636118405710        0.15297059826882
N            2.35120298505190        0.06037050490212       -0.00126511252116
C            2.63242186063664       -1.29838443269994       -0.09048640638367
N            1.43570415121337       -1.96936350975841       -0.15523912322316
C            0.43139592136775       -1.07415715786607       -0.08961366331941
C            0.93244534169213        0.21640614751029        0.02618106572518
C            0.06530656625092        1.37360388866070        0.12018773332465
O            0.45971381594097        2.52354252594066        0.30801424398573
N           -1.43574731669877        1.14900941332396       -0.04635550071393
C           -2.53348044906859        2.38703002460884       -0.28206347650140
C           -1.86530646306875       -0.16092828405390        0.10491427301094
O           -3.02218566219446       -0.49596121051613        0.24118145128324
N           -0.90838480383030       -1.27734051944840        0.02113907869903
C           -1.33711721460161       -2.66609549254640        0.00099725349763
H            3.91874293346843        0.96329890467033        1.09933434120371
H            4.09770403763467        0.96906479839520       -0.65499644485364
H            2.89237657817154        2.04276091993153        0.12901411691611
H            3.59736873189522       -1.74510453636883       -0.21633676148519
H           -1.99834099751709        3.33656163399640       -0.29899004996086
H           -3.10766340997396        2.32807554411691       -1.22028417909670
H           -3.23183820730916        2.42593067931538        0.55313824226348
H           -0.91342523023977       -3.25061309723257        0.82558025309660
H           -1.00054563263729       -3.13606270085906       -0.92807547018026
H           -2.41847888954564       -2.71844684608417        0.07367667369355
H            1.36515728502286       -2.97187670583598       -0.22579692218312
