25
 energy: 5.261246364105 xtb: 6.6.1 (8d0f1dd)
C            3.31416842471033        1.11791188460317        0.12556315397958
N            2.33045063925683        0.08153828187345        0.02906780681778
C            2.62219499633632       -1.27702456049174       -0.02364933754476
N            1.42401153219334       -1.95833553401703       -0.08018371725396
C            0.41814633913625       -1.06538349125005       -0.01339745176879
C            0.91826533247549        0.22644270813193        0.07991862704467
C            0.06696209395181        1.38215994232845        0.10249910798272
O            0.46072877752788        2.54892546529646        0.17414233393895
N           -1.39129067361028        1.11760461399822        0.01572254020572
C           -2.39296156138341        2.27160989683888       -0.18662826652642
C           -1.85583459259407       -0.17776437095387        0.06254556236965
O           -3.03621951664420       -0.45869860728226        0.09610953613691
N           -0.92679803662531       -1.27647528167689        0.06417639837262
C           -1.39114007970130       -2.65284559114292       -0.02288533647104
H            3.84673593926396        1.08822083212001        1.08702711094609
H            4.06259593490753        1.00710083021619       -0.66808513600660
H            2.80475087178505        2.07113107958623        0.03609883780878
H            3.59400497917883       -1.72101314981135       -0.08849709410877
H           -1.84911261851191        3.21865803717573       -0.18888053784460
H           -2.97222417666864        2.22706506403144       -1.11635114879225
H           -3.08237016034220        2.28790533933764        0.66360460800461
H           -1.02546256896399       -3.24009912246392        0.82431926202954
H           -1.04614591547740       -3.13602226377346       -0.94621124689326
H           -2.47646471128123       -2.65005048210507        0.00627374162326
H            1.35282128936541       -2.96219218913965       -0.13163743897122
