25
 energy: 59.048578340885 xtb: 6.6.1 (8d0f1dd)
C            3.43934257691673        0.93197110596437        0.22923135451075
N            2.43850612331581       -0.07169175002245        0.02850453499962
C            2.74578080939318       -1.33845643035033       -0.16716018067691
N            1.61588383220617       -2.07920067730664       -0.20022005323628
C            0.55153317557496       -1.22087788299296       -0.04422876301216
C            1.08739549171123        0.05639908555123        0.09267989838435
C            0.18651068920143        1.23310176866498        0.21758884931280
O            0.62245315735655        2.34628406410302        0.43159457952820
N           -1.10447884012627        0.91083220276060        0.06285836082315
C           -3.28062509720522        3.16518548003695       -0.43728164903412
C           -1.68652287986219       -0.23651833682724        0.20876431787070
O           -2.80799161562266       -0.53910400104264        0.47793003243288
N           -0.73866737071475       -1.49122079186712       -0.00040771869591
C           -1.24483604108808       -2.83257522548034        0.03318053765010
H            3.95127940672263        0.68070309529185        1.14898019248060
H            4.15692428071629        0.89818673474813       -0.59437194750107
H            2.98423318734499        1.91089083807799        0.30348675135037
H            3.72414999827900       -1.68931248563524       -0.35459115598111
H           -2.49545919802191        3.87819293829788       -0.40704993880889
H           -3.66221389831583        2.86133922629156       -1.38297653551861
H           -3.80987613280082        2.91593271538511        0.45151418706902
H           -0.73734810798213       -3.40553681357913        0.81884177728476
H           -1.09664225277276       -3.33400460366701       -0.92170214729563
H           -2.30611282803435       -2.79067031774743        0.26103157753599
H            1.57402498175737       -3.07779318133463       -0.23830416402575
