25
 energy: 57.110636210703 xtb: 6.6.1 (8d0f1dd)
C            3.44701923355576        0.93489503634848        0.20932970006032
N            2.46685134859488       -0.09911733480428        0.02656998155871
C            2.77745276649567       -1.37074291857230       -0.17250450301558
N            1.64524839386218       -2.11011875412826       -0.18342830182804
C            0.57654626213016       -1.25369701104175       -0.01055015671911
C            1.10939605281602        0.02757462845368        0.12730065448518
C            0.21146871369163        1.21281513426611        0.24159903158176
O            0.65976644079515        2.33638192902585        0.41982389072944
N           -1.09960658633922        0.88958883188137        0.12819829787693
C           -3.39690222016222        3.31186583058702       -0.45185470908030
C           -1.67563775369700       -0.26973032725190        0.23393771218269
O           -2.81532096765482       -0.58947547141101        0.43664457802706
N           -0.71382305265971       -1.52814198599250        0.03853684833995
C           -1.22921276020737       -2.86792979193217        0.02592881415133
H            3.97799602051905        0.75493121537978        1.14865190139018
H            4.16173768549157        0.90872150025052       -0.61944768012694
H            2.94418543115594        1.89788397348626        0.23719480469665
H            3.76588139052189       -1.73428791071274       -0.33951004696406
H           -2.58609491991392        4.00024510886759       -0.42059612694304
H           -3.76075292373641        2.98293621785345       -1.39687430104141
H           -3.91982096643084        3.04926599191367        0.43421635610752
H           -0.76862180672994       -3.46663148291709        0.82154771858255
H           -1.06355342544396       -3.35437096372651       -0.93956394844067
H           -2.30024933910118       -2.80886321719073        0.20591268372538
H            1.59360443522298       -3.10888812513301       -0.26769912172491
