25
 energy: 60.791872496126 xtb: 6.6.1 (8d0f1dd)
C            3.42919575476355        0.95805802640309        0.21972862583643
N            2.39914651651026       -0.02356659389299        0.02163314044672
C            2.69894960569766       -1.29725220306818       -0.14407816158074
N            1.56177465213142       -2.03551293634124       -0.19184415447306
C            0.50081649572959       -1.16771593772212       -0.07120133778573
C            1.04100126174522        0.10435948183472        0.03506545329754
C            0.13997970952010        1.27651903596234        0.16285622038582
O            0.61081540513122        2.36908015208777        0.45373318968094
N           -1.16768025687790        0.98268582944760       -0.00356283479838
C           -3.08558811884768        2.95050464768928       -0.41600242091355
C           -1.72251554227363       -0.18936458580379        0.15584647671691
O           -2.84843224923873       -0.48352354223065        0.46300554320175
N           -0.79498407764361       -1.42109233838083       -0.04178110771283
C           -1.26543577459054       -2.77710231639775        0.04219418207811
H            3.93866629518465        0.70610909152949        1.15170365973398
H            4.15444798293932        0.89977471681849       -0.59025858417973
H            3.00300554849472        1.94307644876394        0.30615697667184
H            3.67707411643597       -1.62688862399321       -0.37133334168317
H           -2.34639357023174        3.70420417609794       -0.38859813683648
H           -3.50129646929970        2.68917328869387       -1.35628175027738
H           -3.63909081848021        2.72911680705616        0.45761611278407
H           -0.72120958576358       -3.29976692794987        0.83103019519599
H           -1.08668792874680       -3.28525692540184       -0.90671575868594
H           -2.32831052318525       -2.80268281516700        0.26273473188739
H            1.51470772517927       -3.03306565521922       -0.25932855404816
