25
 energy: 57.951628375122 xtb: 6.6.1 (8d0f1dd)
C            3.44170224742931        0.93710031755615        0.21572891079786
N            2.45259682794030       -0.08437377645529        0.02602219401166
C            2.76220270455315       -1.35365517103701       -0.17115451298430
N            1.63114258913219       -2.09318537088296       -0.19729944277303
C            0.56397396211875       -1.23715929369861       -0.03007688926835
C            1.09813357715728        0.04117309378586        0.10912604688851
C            0.19895650753108        1.22079882046592        0.23398375595133
O            0.64928145876440        2.33142865228860        0.44792253060335
N           -1.10180568881130        0.89836081046947        0.09691581590112
C           -3.33828202230031        3.23970872337113       -0.44488354540943
C           -1.68214394742707       -0.25464153451737        0.22336920614738
O           -2.81404082413127       -0.56798197605593        0.45616158723200
N           -0.72688739844161       -1.50959323894115        0.02308099853077
C           -1.23423400752527       -2.85214976692092        0.03249597654016
H            3.96767441441747        0.71681342789407        1.14526344848139
H            4.16388936967542        0.90340227462432       -0.60606786606091
H            2.96499062314507        1.90788666856087        0.27085322572939
H            3.74561596759701       -1.70946357691121       -0.35172377413263
H           -2.53295259717721        3.93734563938318       -0.40855952029066
H           -3.71121523362479        2.92092504403176       -1.39144112969008
H           -3.86829571458400        2.98101232120489        0.44147513229427
H           -0.74764228978726       -3.43705426659504        0.82419307581758
H           -1.07844187582559       -3.34174951646348       -0.92982206189568
H           -2.29757957362573       -2.80806973337663        0.24431669814084
H            1.58158175667151       -3.09219081724487       -0.25153616861268
