25
 energy: 38.699276243598 xtb: 6.6.1 (8d0f1dd)
C            3.37766363850621        1.05093195728319        0.16245878341992
N            2.36083800283055        0.05552305520780       -0.00755115229897
C            2.63830222746596       -1.29748203780533       -0.10321248302500
N            1.44787656884453       -1.97516060587341       -0.17351498591269
C            0.44139498007233       -1.08403595033595       -0.11397156688227
C            0.94464793389900        0.20653440698226        0.01064383672768
C            0.08420087321247        1.36487617095039        0.11967730214079
O            0.47932099102738        2.50882916723396        0.34739764042776
N           -1.41465193058337        1.13757584561556       -0.05934795058133
C           -2.58652024839934        2.44008439633454       -0.30824599500765
C           -1.84796451229183       -0.16967864263130        0.10534084134731
O           -3.00141554637205       -0.50425016922895        0.28320854026487
N           -0.89655563226647       -1.29041366651961       -0.00147022466983
C           -1.32188995665286       -2.67742377849407        0.00916573958000
H            3.93330566927661        0.92026616184957        1.10634865539953
H            4.10931240671172        0.95613993610977       -0.64823217431350
H            2.91913145820679        2.03197234819114        0.15683879240490
H            3.59870479433640       -1.74169891884217       -0.25687172978887
H           -2.05408542143593        3.38679838200313       -0.32757402206846
H           -3.16343495349810        2.37650692564073       -1.24191725025605
H           -3.28052431281092        2.47260171364755        0.52237813458853
H           -0.87715724411417       -3.25319766659344        0.82902911905260
H           -1.01376513566616       -3.15887312044210       -0.92343660638988
H           -2.40112540247391       -2.73759418971135        0.10104751038476
H            1.38007671885164       -2.97552758318079       -0.25783246780163
