25
 energy: 54.459759893880 xtb: 6.6.1 (8d0f1dd)
C            3.43863373427167        0.94919252290431        0.14473569834352
N            2.51983690316129       -0.15547005561831        0.04796455371111
C            2.83882225867415       -1.42892240142168       -0.12755592958346
N            1.70895714103922       -2.17817474898971       -0.13677078952145
C            0.63542249556541       -1.33489329280030        0.04887455451818
C            1.16363329632939       -0.05221209515872        0.16997070411718
C            0.26945536633927        1.12474110323900        0.26112559508418
O            0.70954906704912        2.26530687637034        0.29073333996163
N           -1.03547407759089        0.80958409677418        0.26570877451586
C           -3.59713672373775        3.61930949489390       -0.42416303014741
C           -1.60724553617636       -0.35130372029264        0.23950198466217
O           -2.76572982241115       -0.65790416358966        0.27761194876928
N           -0.65164752284000       -1.60487606540844        0.09366603908635
C           -1.21743113835810       -2.92104250468912       -0.02028111935512
H            3.96331937566220        0.93177520378279        1.10220326163241
H            4.17158601095502        0.90509995781398       -0.66040447414718
H            2.85572407046456        1.87142852229130        0.07773365939077
H            3.82856123153227       -1.81870997607336       -0.23562903783878
H           -2.74043490479250        4.25457208601671       -0.38050922014835
H           -3.93172030625589        3.24211476406100       -1.36424155996400
H           -4.09307837398179        3.32508739544737        0.47323284617009
H           -0.88204126658791       -3.56845060548673        0.79493279970712
H           -0.97838188563818       -3.38065336462531       -0.98513397662359
H           -2.30025662989089       -2.79073864488362        0.04593928978919
H            1.66993018093646       -3.17753189397025       -0.25172691040769
