25
 energy: 41.180451354796 xtb: 6.6.1 (8d0f1dd)
C            3.44766402159934        1.58308934322155        0.05901329371987
N            2.62974898908982        0.40162353647110        0.11080442310260
C            3.05862633523131       -0.85181778249400        0.19218905192167
N            2.01372338375454       -1.71137485349088        0.14704126638687
C            0.85452259638831       -0.95723962529420        0.03387566852463
C            1.27093052454982        0.38563183594925        0.00980447235294
C            0.31440580271338        1.48572514837886       -0.02675584323445
O            0.64649195560024        2.66594315047689        0.00519666205899
N           -0.95561924866382        0.98861750364147       -0.07453904898046
C           -2.07846231215352        1.90525560249540       -0.08744250666020
C           -1.33881061482907       -0.43283469523434       -0.00672746952325
O           -2.52808945700968       -0.62301474646114        0.03945588588735
N           -0.38525960994809       -1.37563575606099       -0.00137562472533
C           -3.28196602707257       -3.50390148226982       -0.24738971691610
H            4.20405554942106        1.56065783322921        0.84246536563161
H            3.92498304610438        1.63772464982608       -0.92146282131358
H            2.80998602355931        2.46228223817556        0.18557301584616
H            4.08993767482502       -1.12163429035807        0.27796235245359
H           -1.68997939650166        2.91704342602100       -0.14308596247596
H           -2.70711170736923        1.68078694497758       -0.94748190968645
H           -2.67076286102048        1.75515014407756        0.81414483646916
H           -3.16488771920284       -4.13573220966957        0.59225394301937
H           -3.42279213079455       -3.84626653028520       -1.24061711311701
H           -3.37994289270203       -2.46958392601320       -0.09517685710219
H            2.12677327188073       -2.71784415718458        0.20602017259743
