25
 energy: -4.166829243114 xtb: 6.6.1 (8d0f1dd)
C            3.25626852431786        1.21810099575419        0.08780964545402
N            2.33901621620746        0.11782834088064        0.03452018950634
C            2.65484098170245       -1.23155442210683        0.04321689121610
N            1.47710634237354       -1.93766044940775        0.03372528006983
C            0.43264367194981       -1.09110689627670        0.00690339245802
C            0.94655912614535        0.21132446781037        0.01611893979513
C            0.13135552928430        1.36022385734593       -0.01086297902496
O            0.47071613599799        2.54863982088430       -0.02159873775375
N           -1.25560862956129        1.00621439526908       -0.02953940266759
C           -2.20603043165976        2.10904045188632       -0.04984987074402
C           -1.78894247620630       -0.24165220055521       -0.03935266039070
O           -2.99102149740022       -0.42978968081929       -0.06041082768798
N           -0.91740510664870       -1.35984414249556       -0.02651190288322
C           -1.60318254461440       -2.64836174374393       -0.08368551896709
H            3.77058322969758        1.26348261118726        1.05456130179846
H            4.01161319708648        1.13366031350264       -0.70054908964550
H            2.69048949672355        2.14586712149868       -0.03879834990514
H            3.63542578613145       -1.65123603283297        0.06963244138947
H           -1.63757565080252        3.03916184066084       -0.03053430119886
H           -2.81314622055072        2.04745773026154       -0.95179124983813
H           -2.85095993235381        2.04479242968512        0.82345234431778
H           -1.37520707775043       -3.26362702134716        0.79119946205681
H           -1.37671141734477       -3.20182620562001       -0.99667250866793
H           -2.66107140270543       -2.42672731899121       -0.07666394517452
H            1.43198801218337       -2.94019793865708        0.04304983867599
