25
 energy: 51.444913496529 xtb: 6.6.1 (8d0f1dd)
C            3.31906150621319        1.44779807992672        0.05637504861314
N            2.50875129647485        0.25612337834603        0.09494358177951
C            2.89997486354727       -1.01327738970457        0.19965161094762
N            1.82817275028213       -1.85399325261995        0.14624876179542
C            0.68150186764445       -1.09726599846344       -0.01115294629313
C            1.15544306164462        0.23421230840489       -0.02643106406532
C            0.25527379362977        1.36180628876083       -0.03268047171136
O            0.64816778761678        2.52368539994429        0.00777416176692
N           -1.02852528764600        0.93798233657644       -0.06500803320574
C           -2.06439949196806        1.96108113432898       -0.06519092629585
C           -1.48721580635125       -0.40127424324032        0.00082398377572
O           -2.69034284983434       -0.43878244527008        0.12835585266366
N           -0.61071722736904       -1.44898624561452       -0.04971698380524
C           -2.71315127538968       -3.06778934261761       -0.22518064795423
H            4.09322074436342        1.40575353817051        0.81126910714149
H            3.77623226510902        1.57605352503501       -0.91964490036872
H            2.69874675021105        2.31741434019588        0.25356708867432
H            3.91982286175314       -1.32360481138819        0.28100313553341
H           -1.52162923456483        2.90008927581621       -0.13768381388700
H           -2.72337758199608        1.79418213736867       -0.91700890668305
H           -2.65313918078061        1.90811934120094        0.84938199337758
H           -2.50544193935979       -3.72790024339495        0.54096403756268
H           -2.73617137180691       -3.32884674497545       -1.23106008388360
H           -3.24894798628506       -2.20838900330457        0.06666186913649
H            1.92103171265441       -2.85953142322722        0.23469168445317
