25
 energy: 37.591018300140 xtb: 6.6.1 (8d0f1dd)
C            3.50788258229108        1.64773447026578        0.05743963534261
N            2.69196581091145        0.46160468562969        0.08505093715387
C            3.11840956922971       -0.79251466914095        0.13645714891562
N            2.06478174338687       -1.63659315463038        0.13519219937900
C            0.90560167032209       -0.88922059387103        0.07904201064419
C            1.32350263435084        0.44828872722884        0.04815195856707
C            0.34097013936541        1.50315056108399        0.00098750047625
O            0.59202449178730        2.70090711163352       -0.01740454166474
N           -0.93428708845855        0.98817118218275       -0.01859051578935
C           -2.04744855666605        1.91930521369427       -0.06636485486731
C           -1.29784243129482       -0.39350085318774        0.00544032594031
O           -2.47640486266880       -0.66514672943340       -0.02183053553791
N           -0.32001245203024       -1.33087962683868        0.05878077430047
C           -3.49063369457041       -3.63131250424663       -0.22728419382263
H            4.18112432580316        1.66657044813363        0.91461874057058
H            4.09984368595332        1.67996904643110       -0.85823590371840
H            2.84694952733634        2.51454411324999        0.08898652846721
H            4.14523464942431       -1.09506766674459        0.17489679906200
H           -1.64181324279238        2.92764759066525       -0.10525305690933
H           -2.65885150389683        1.71797203253200       -0.94623848835675
H           -2.67313326846215        1.79443119031186        0.81792820163057
H           -3.52495940512709       -4.26636898808808        0.63210370539152
H           -3.72821612091559       -4.03549632246662       -1.18836118784809
H           -3.21508349095253       -2.60236164360868       -0.12823236322866
H            2.10260959264566       -2.64280483204160        0.16975308809648
