25
 energy: 39.527951924299 xtb: 6.6.1 (8d0f1dd)
C            3.46711204758569        1.60440988797106        0.05855539712365
N            2.65027795456392        0.42295362916524        0.10554558339221
C            3.08028202509824       -0.83036259577861        0.17687567794616
N            2.03159811807938       -1.68356614383466        0.14577735172459
C            0.87328176208421       -0.93260704486227        0.04885816798329
C            1.28922323999716        0.40933188498957        0.01857222710338
C            0.32879600237161        1.49853106309579       -0.01919811890243
O            0.63587062326219        2.68570407380313        0.00128676399921
N           -0.94200178437621        0.99316273083107       -0.05905543762988
C           -2.06498849800611        1.91068916356124       -0.08088695731491
C           -1.32066458022531       -0.42303538383783       -0.00408705395642
O           -2.50755386322149       -0.63970242768727        0.01832513278514
N           -0.35909788796447       -1.36366152230076        0.01413111361423
C           -3.35388428359225       -3.55413698300337       -0.24677665520881
H            4.20197973435191        1.59664824276000        0.86328360374212
H            3.97375859598885        1.65009390136396       -0.90555309651273
H            2.82488372824740        2.48346607611485        0.15164918901914
H            4.11214473448061       -1.10864804381099        0.24247841582756
H           -1.68007665050212        2.92454715174941       -0.13904481790500
H           -2.68846916273215        1.69577617972294       -0.94728948590089
H           -2.66987165915993        1.76976767386744        0.81582266903048
H           -3.26270710115721       -4.18763838999725        0.59753774883522
H           -3.53877296669788       -3.91219395435870       -1.22855898805038
H           -3.30710634347257       -2.50553788654030       -0.12074146228413
H            2.12050039022658       -2.68767562698378        0.19687024518549
