25
 energy: 46.385181258967 xtb: 6.6.1 (8d0f1dd)
C            3.39658935306732        1.50991209961447        0.06643792565765
N            2.57007993861750        0.34259780417012        0.12646903483479
C            2.98495429617113       -0.90749074395492        0.21941194966057
N            1.94150390065707       -1.76807571304934        0.13987849686131
C            0.78682203971388       -1.01607682494249       -0.01493074597152
C            1.21951126812712        0.32106788867188       -0.00955388259654
C            0.28421130844485        1.43832622498373       -0.02688219733293
O            0.66403025439176        2.60283063212453        0.01349013356999
N           -0.97715235579016        0.95971479536474       -0.07950650957198
C           -2.06694787699477        1.91247617567678       -0.08183597931905
C           -1.40607539254036       -0.43774957980873       -0.00684899097770
O           -2.60151233149570       -0.54667238038394        0.08142418965395
N           -0.47878712485338       -1.40788314191496       -0.03409869835365
C           -3.05092833045709       -3.29983107921696       -0.25378776452429
H            4.19575114183264        1.48104569018624        0.78708146063615
H            3.81558226027564        1.58457191925834       -0.91724062397094
H            2.80460458793311        2.39079241901200        0.23053098248007
H            4.01370220934813       -1.17281296423485        0.30831649630506
H           -1.61379483254743        2.89907062739093       -0.15078557687190
H           -2.71545948361198        1.69216865175774       -0.92886522755787
H           -2.65478811361421        1.81072279289200        0.83158506515074
H           -2.89146970196044       -3.96036609587640        0.53863323501349
H           -3.14577959886673       -3.58098763732377       -1.26988847986818
H           -3.39359100259643       -2.33770100699300        0.00312352625680
H            2.08547374412927       -2.76770602002405        0.22157473976631
