25
 energy: 25.123988890582 xtb: 6.6.1 (8d0f1dd)
C            3.26330575225558        1.33166447303734        0.08108218104477
N            2.41148661058737        0.15705158177649        0.04787282223081
C            2.76529755357564       -1.17264527069216        0.11654609223339
N            1.62789638135326       -1.93815272818180        0.10272845746562
C            0.50444380528161       -1.19578221703825        0.00890605486728
C            1.00737369053284        0.15356723832329       -0.02262561885025
C            0.21109599705947        1.30524019483295       -0.04078544994259
O            0.53390480111010        2.49987389678630       -0.07164854779356
N           -1.16579130893071        0.92854995690264       -0.02750528394866
C           -2.12576272313208        2.03091057527962       -0.05180428590210
C           -1.68744590504058       -0.32645230184909       -0.01104369350139
O           -2.90434969002862       -0.40112031068662        0.02569362774714
N           -0.90167251377347       -1.53080411272572       -0.04867979923677
C           -1.95628604171295       -2.71043729577051       -0.16602029081817
H            3.91050153934718        1.35627046557002        0.96981557583348
H            3.93536833453009        1.37283817171952       -0.79068949869647
H            2.62951199278233        2.22927541976054        0.12095718498004
H            3.76868487248323       -1.53438665165222        0.17098638300915
H           -1.53232164929261        2.94474074879163       -0.06717015301570
H           -2.75309141804402        1.94122307917714       -0.93437143550377
H           -2.73812263409843        2.01722173499998        0.84308145739960
H           -1.87125071247293       -3.43914500413892        0.64073427597824
H           -1.96272816233896       -3.22115228470215       -1.12388377844535
H           -2.88939642679948       -2.18390106884785       -0.05941552622002
H            1.66034855513243       -2.94074514213867        0.15193442680725
