25
 energy: 52.458608429333 xtb: 6.6.1 (8d0f1dd)
C            3.27713113579615        1.42422596425439        0.06904146131871
N            2.47681632011697        0.21835096716528        0.07442190585660
C            2.85721368306746       -1.06256409306098        0.17658136118577
N            1.76541052812860       -1.88625866953518        0.14726724247667
C            0.62522313405874       -1.12679011417083       -0.00034304978502
C            1.11585941599903        0.20333631900970       -0.04063575589401
C            0.24186556064951        1.33576987480504       -0.04998725389408
O            0.61330332945165        2.50700956994076       -0.02710932170433
N           -1.06122981515855        0.93078765279137       -0.04399913406068
C           -2.07318441868823        1.98527187843020       -0.05810565702860
C           -1.54091879541625       -0.38667360021860        0.00268038243086
O           -2.75100880574817       -0.40879975703242        0.10878624128600
N           -0.67957760919141       -1.46955891656639       -0.05626033178041
C           -2.53353093956833       -2.98069164038763       -0.22239359044387
H            4.01788002301524        1.38990699511855        0.86532561580728
H            3.82629283156031        1.53501823357500       -0.86764829902176
H            2.62764038970740        2.28878988152281        0.24386352941656
H            3.87195364470331       -1.39438916037861        0.24995587631520
H           -1.50685846966244        2.91314035949196       -0.10600110881851
H           -2.72771144193387        1.84272021397086       -0.91893881924375
H           -2.67137597760233        1.94314320281738        0.84969661238097
H           -2.30245214625267       -3.63291585273160        0.56360736676777
H           -2.48342054740113       -3.27897358406456       -1.22386930385036
H           -3.15114760006653       -2.16841237942130        0.00644010193931
H            1.83379486028618       -2.89128136945005        0.21515745302919
