25
 energy: 49.790370726617 xtb: 6.6.1 (8d0f1dd)
C            3.36183893362458        1.47645633571265        0.05181393656485
N            2.54319439225870        0.29656242406261        0.11951973459561
C            2.94447089397466       -0.96318764161094        0.21651870676095
N            1.88692750863731       -1.81330423010427        0.14166305369070
C            0.73616645705206       -1.05926666167355       -0.01667987955773
C            1.19420606262906        0.27239830938721       -0.01460017889121
C            0.26972383342010        1.39427837627374       -0.02758532254009
O            0.66559279621912        2.55311322248960        0.00874790375471
N           -0.99921953522565        0.94317013285735       -0.07959135471206
C           -2.05859709088803        1.93466705253021       -0.07249729758577
C           -1.44328091902685       -0.42020640210096       -0.00815153064868
O           -2.64491538038629       -0.48967125773070        0.10364072803976
N           -0.54343723829910       -1.42907110289262       -0.04517846154523
C           -2.88424128652073       -3.16657526600229       -0.23795988618965
H            4.16333763669988        1.43529387906968        0.76922105833142
H            3.76544711651052        1.60684579226635       -0.94256400432016
H            2.76693728772944        2.35170580797225        0.26165798760226
H            3.96806022001213       -1.25011443442715        0.29847158749997
H           -1.55641714522367        2.89399366209029       -0.15290609382195
H           -2.71929697867878        1.74292335563407       -0.91901422706438
H           -2.64785052123468        1.86001362078353        0.84242027036370
H           -2.71522948391022       -3.83747907152516        0.52269625838174
H           -2.97507202267405       -3.41753984732684       -1.24673018031036
H           -3.31167393430339       -2.25300341379065        0.07034927781549
H            2.00283782522187       -2.81577131776643        0.22696467574188
