25
 energy: -0.864942285868 xtb: 6.6.1 (8d0f1dd)
C            3.25954525430086        1.24175054903499        0.08682311484328
N            2.35553260564004        0.12549122483352        0.03518710116816
C            2.68276235448190       -1.22392926148815        0.05457821974942
N            1.50953584073857       -1.93963707727180        0.05073934067202
C            0.44872868550427       -1.11439637334519        0.01495344611815
C            0.95885098651415        0.19572867906883        0.01573198902722
C            0.14040892259484        1.34041408541984       -0.01455551675764
O            0.45954843472431        2.53378415570556       -0.03400154167943
N           -1.24614691280682        0.98116682193882       -0.02739621818229
C           -2.19325440569658        2.08919372702876       -0.05123313627281
C           -1.77182175511587       -0.26702394410538       -0.03275484622825
O           -2.97516540217007       -0.44905921574182       -0.04737005921811
N           -0.90886676163993       -1.39782472706248       -0.02271881887088
C           -1.66916759588468       -2.66137956443029       -0.09852297074853
H            3.79887303947686        1.28279856450977        1.04088288536622
H            4.00159501891948        1.18341528052550       -0.71827385586432
H            2.67937447817101        2.16658943069263       -0.00764504439601
H            3.66780972153306       -1.63747975397892        0.08958132565699
H           -1.61861197214491        3.01583885165707       -0.03798969722009
H           -2.79979049451263        2.02543461465754       -0.95190807466577
H           -2.83101459610853        2.04020097181131        0.82648896115496
H           -1.47705973992808       -3.30635829159472        0.76407488941948
H           -1.49271884903316       -3.21311694839347       -1.02198110527652
H           -2.70708007146055       -2.36799555619196       -0.07611311649214
H            1.47518544613109       -2.94185587488860        0.07058878686230
