25
 energy: -5.996936548981 xtb: 6.6.1 (8d0f1dd)
C            3.24963784837864        1.19467609398002        0.08805771864827
N            2.32093625652569        0.10960882935765        0.03455174860656
C            2.62517320432812       -1.23738617180184        0.03540496546682
N            1.44432124144950       -1.93645945877308        0.01619059018166
C            0.41429661490815       -1.07072370020023       -0.00227699047166
C            0.93198619667302        0.22405380923190        0.01415725563101
C            0.12294733074374        1.37870424728894       -0.00768541733031
O            0.48540524416572        2.56069821202268       -0.01030143303939
N           -1.26372561833864        1.03095809008730       -0.03097309750163
C           -2.21568790936339        2.13015424097990       -0.04943118549056
C           -1.80591687487781       -0.21656459663949       -0.04408309611607
O           -3.00737193699646       -0.40458082721011       -0.06709482527792
N           -0.92973220581855       -1.32574862318384       -0.03193775346891
C           -1.53826632463816       -2.64135596475098       -0.06989255161221
H            3.74257067170522        1.24133996664928        1.06496932753889
H            4.01539332595672        1.08423448017700       -0.68511019413021
H            2.69801041435710        2.12403426090814       -0.06722178172217
H            3.60191170583591       -1.65965455573684        0.05102486907913
H           -1.65247735267359        3.06248498102872       -0.02670333380517
H           -2.82188853143526        2.07129879358298       -0.95299410545124
H           -2.86794554466651        2.05678205059638        0.81958435914547
H           -1.27257628506105       -3.22643623131672        0.81452632985128
H           -1.26035307682954       -3.18941225574305       -0.97312042702304
H           -2.61268157284560       -2.49153210148410       -0.07567588992855
H            1.39052201167168       -2.93939326960834        0.01335026703942
