25
 energy: 44.650257189047 xtb: 6.6.1 (8d0f1dd)
C            3.41157826985489        1.53989845310264        0.06577682981480
N            2.58674312543875        0.37007644746453        0.12246135235817
C            3.00661032999950       -0.87834484390062        0.20649787918565
N            1.96717004618369       -1.74210167541270        0.14146685727575
C            0.81158333831992       -0.99206857028681       -0.00827491117790
C            1.23539037556477        0.34683560889188       -0.00594249616879
C            0.29516710311175        1.45965417045125       -0.02796982185193
O            0.66575289281766        2.62774116997437        0.01490210695354
N           -0.96548228117017        0.97133412136495       -0.08258353255088
C           -2.07011074324323        1.90220279286030       -0.08594028398572
C           -1.38147334937464       -0.43859090204796       -0.00717818051954
O           -2.57511410580059       -0.57285893769177        0.07022970960652
N           -0.44545600144918       -1.39540054432665       -0.02654316333062
C           -3.12678261745094       -3.37429897483467       -0.24258255160345
H            4.20201783747578        1.50806614422509        0.80562774028776
H            3.84639470990523        1.61019275973508       -0.91980450128213
H            2.79904976437020        2.41643701507473        0.22263269368339
H            4.03615771988659       -1.13255850575898        0.29910464275498
H           -1.64122237679891        2.90023778399148       -0.15150692923414
H           -2.71316460704957        1.66657900975118       -0.93212444196943
H           -2.65519375481335        1.78505755304597        0.82780615446655
H           -2.96164429839282       -4.01925880469176        0.57359290836242
H           -3.22731013128374       -3.68107005850633       -1.25083168923160
H           -3.41521569477156       -2.38703878880843       -0.02638613167227
H            2.12240234210358       -2.74093561810316        0.22161686151759
