25
 energy: -42.118631166023 gnorm: 0.008535203701 xtb: 6.6.1 (8d0f1dd)
C            3.04483392384412        0.75528959709327        0.09012449883745
N            2.43786513884945       -0.57244766892555       -0.00453224812243
C            3.31998148217143       -1.65609118555366       -0.05125255054374
N            3.06868781132930       -2.87457343579362       -0.09786685196810
C           -0.06482922805652       -0.19230042018654       -0.01924925918237
C            1.14251118521151       -0.74480836798987       -0.01777645240932
C           -0.41626054846432        1.29066887271161       -0.05909839491034
O            0.34955957026791        2.21535419441435       -0.09087984762878
N           -1.77365019332542        1.31616694495687       -0.03021443908095
C           -2.59525423845159        2.50384884909571       -0.03374513957002
C           -2.33163666346161        0.03777988047827        0.01036772892502
O           -3.49349873575522       -0.23737985114049        0.03634573744114
N           -1.26776498217524       -0.85366481301540        0.01675284263853
C           -1.44628454656858       -2.27690906522630        0.04527454993416
H            3.60966760135566        0.83492053416586        1.01977967543480
H            3.71727362393584        0.90071906485930       -0.75629384721804
H            2.27809596483931        1.52899725075867        0.06856951866258
H            4.36336717160470       -1.35136021145336       -0.03526353999107
H           -1.95122542114617        3.38080293322956       -0.04064038345991
H           -3.23741629462335        2.50130773056458       -0.91614775289007
H           -3.22903350615894        2.50804693287009        0.85475859530323
H           -0.99071822290931       -2.70302406519008        0.94112751514090
H           -0.99718805243315       -2.73434687384234       -0.83853409938426
H           -2.51750286411409       -2.47718190487703        0.05316125932216
H            2.14085153833680       -3.28157638035921       -0.11359549732461
