72
 energy: -99.360830207594 gnorm: 0.004142987529 xtb: 6.6.1 (8d0f1dd)
N           -1.33624790707403        2.37781593145493        2.24499107432159
C           -1.19422607393176        1.57921075338987        1.29301302188614
C           -2.20227882097479        1.41042055606136        0.18136311237800
C           -2.56217867234260       -0.13077106413932        0.10503575532443
C           -3.80710527978181       -0.40101402511188       -0.66448860016170
C           -4.81948089653923       -1.19200825965135       -0.21434966035118
O           -5.97072918321327       -1.45297073727320       -0.86825207381575
C           -6.21934908289054       -0.82520626209605       -2.10502833009767
C           -4.71987309280378       -1.84570937355001        1.06464302665335
O           -5.75822440353785       -2.60360986427850        1.40504695354554
C           -5.77123016823679       -3.26921890247027        2.64989750149178
C           -3.56952715403881       -1.62652818888583        1.84316770460818
C           -2.57180381235367       -0.80349322419576        1.42509826874084
C           -1.43908343781672        1.88049828709846       -1.06109708934682
C           -1.58271341191733        1.33450635102434       -2.45279355554649
C           -0.28042656136651        1.15966168618606       -1.73486448511611
N            0.18106874581009       -0.12954538518963       -1.30032714454455
C            1.50039826704503       -0.08858737351085       -0.69597430930865
C            2.67612571778446       -0.06232843332891       -1.70010655467657
C            3.97652685544601        0.17396492603882       -0.99210479872986
C            4.50491521496298        1.45268538023598       -0.87862999454833
C            5.71051807151587        1.67156151344929       -0.23189927030584
C            6.41449697571209        0.61342276723288        0.32760156242027
O            7.59365543119544        0.70426595391691        0.96725721893808
C            8.22960442887990        1.95768718330375        1.07050805947592
C            5.87400406263311       -0.70094008578308        0.23188579329993
O            6.61736858708330       -1.66600493931458        0.80525334508704
C            6.18317525024071       -3.00380467122205        0.74278171496452
C            4.66843917527560       -0.89419247333409       -0.42538369517513
C            0.01048340687756       -1.22719110148073       -2.23849371297258
C           -3.48927903878189        2.26522436809146        0.37209741452111
C           -4.25003259238743        1.88042519591000        1.63940936301906
C           -3.23143778912484        3.77323235316208        0.39698791111985
H           -3.90559597628327        0.07412347265041       -1.62529933810973
H           -6.21447939877923        0.26473020398975       -2.00889268602922
H           -7.21181774963142       -1.15543238299700       -2.40490915164318
H           -5.49297620292933       -1.13163756988719       -2.86395085731597
H           -5.73160626013749       -2.55943711002988        3.48089343088561
H           -6.71449708384715       -3.81087783282252        2.68172082188278
H           -4.94236784023417       -3.97779218789768        2.73141356927289
H           -3.48598191139997       -2.10776201765617        2.80494109408035
H           -1.71321602253419       -0.66367150333296        2.06184624580337
H           -1.27977227305001        2.95037563816217       -1.01191382266709
H           -1.69788771832772       -0.54008301102705       -0.44624494412828
H           -2.18535579183118        0.45975549109708       -2.62028486264295
H           -1.62033466647749        2.03649064205544       -3.27244333194907
H           -0.30477995569270        0.95208775508971        1.14613699903714
H            0.52422877816604        1.82098107190280       -2.05303583776570
H            1.60442186088669       -0.96797592756150       -0.05286322390926
H            1.56179784546921        0.80370579376472       -0.06811203717263
H            2.50552758886150        0.73432492053109       -2.42649678907458
H            2.71599696505410       -1.01284982962705       -2.23303018380118
H            3.98251878405587        2.29181515900233       -1.31244011158003
H            6.10069565362909        2.67454970494390       -0.17362612906687
H            7.62403271937452        2.66898458796049        1.64023891987313
H            8.45270615534381        2.37492095548587        0.08403353270132
H            9.16057826310703        1.76979065775547        1.60205528254253
H            6.94875494117298       -3.58345780867825        1.25496516245367
H            5.22477406347431       -3.13814348167478        1.25430112705716
H            6.09840645936321       -3.35022890948868       -0.29169115905370
H            4.25934119901023       -1.88812604716894       -0.51769461770482
H            0.48296708282004       -1.03557149198713       -3.20783920916183
H           -1.04810410150317       -1.41876129738335       -2.41076958452045
H            0.44657683621176       -2.12368322077996       -1.80114287864988
H           -4.13213689292425        2.05596872747960       -0.49028320634715
H           -3.62474770771229        2.04465323330161        2.51129976177092
H           -4.57112243552854        0.84464515692196        1.61786837158781
H           -5.13608931433022        2.50326443332537        1.73213901342833
H           -2.49293220654477        4.01886432879915        1.15352592161627
H           -2.90587232934081        4.15110201216338       -0.56832068899842
H           -4.15706622395373        4.28422002017456        0.64891629607520
H           -0.58362234732459        2.43881834420179        2.92400841667119
