  72
        -99.31061954
 N         -1.7004442267        2.6148895986        2.6229795725
 C         -1.6872779076        2.0365991834        1.5161083121
 C         -2.8482679963        1.9917282380        0.5614712139
 C         -3.3864808043        0.5707572296        0.4825011865
 C         -4.3430343179        0.2469202307       -0.4820274229
 C         -4.8724148306       -1.0287829876       -0.5774154430
 O         -5.8067233499       -1.4195401425       -1.4698185162
 C         -6.3985640901       -0.4582089525       -2.3114157529
 C         -4.4245184338       -2.0406442186        0.3136863318
 O         -4.9834026622       -3.2557708424        0.1399141619
 C         -4.6515434982       -4.2952015994        1.0303408772
 C         -3.4779527947       -1.7122155494        1.2704992550
 C         -2.9691837601       -0.4218195674        1.3549961582
 C         -2.2826174500        2.4173544538       -0.8188786071
 C         -1.4125511085        1.3503217918       -1.5051506910
 C         -0.0663191729        1.2014701296       -0.9077624446
 N          0.5524115548        0.0469537114       -0.6810534010
 C          1.9665469310        0.0172368052       -0.3995546353
 C          2.7860362391       -0.3282796562       -1.6588484569
 C          4.2444956781       -0.4181525247       -1.3232170862
 C          5.2270417843        0.4477995985       -2.0646754645
 C          6.4266545453        0.7593017208       -1.2234348497
 C          6.7697111889        0.0342169544       -0.1343126097
 O          7.8094536427        0.2363429026        0.6950510679
 C          8.6539969424        1.3405425613        0.4562266298
 C          6.0104852479       -1.1948218222        0.1061348289
 O          6.6245518029       -2.1481286122        0.7956939998
 C          5.9514349078       -3.3850814626        0.8949238131
 C          4.7224860057       -1.2363305755       -0.3729442099
 C         -0.1164100912       -1.2231521003       -0.8311900102
 C         -4.0176726737        2.9371556427        0.9667961653
 C         -4.6736617252        2.4897586775        2.2707988704
 C         -3.5971739874        4.4001144850        1.0769399452
 H         -4.6883257246        1.0094589852       -1.1600610660
 H         -6.8691007150        0.3438755185       -1.7348090352
 H         -7.1618767313       -0.9928224775       -2.8733175217
 H         -5.6714091414       -0.0305775874       -3.0095731942
 H         -4.9057691959       -4.0355206566        2.0622144016
 H         -5.2473782117       -5.1498703334        0.7161809662
 H         -3.5892222265       -4.5527869501        0.9692209407
 H         -3.1344962592       -2.4538592207        1.9732832155
 H         -2.2575252131       -0.1976161454        2.1344590299
 H         -3.1159335649        2.6514422097       -1.4803644926
 H         -1.6961276094        3.3283679742       -0.6935839064
 H         -1.9477841165        0.4027779436       -1.5318185055
 H         -1.2697151530        1.6804066704       -2.5429702166
 H         -0.7972176860        1.5264251789        1.0974793402
 H          0.5281306797        2.0958506513       -0.7916621924
 H          2.1747397444       -0.7319969119        0.3680996417
 H          2.2833614034        0.9915584077       -0.0228787106
 H          2.6130145706        0.4287822621       -2.4251907394
 H          2.4418231221       -1.2897393199       -2.0483283882
 H          4.7294411731        1.3808088398       -2.3451790829
 H          7.0372240791        1.5803567417       -1.5622634417
 H          8.0940146554        2.2800073651        0.4882143264
 H          9.1619765168        1.2508637798       -0.5083230280
 H          9.3908242848        1.3275201624        1.2564968874
 H          6.5290742581       -3.9973724901        1.5833585936
 H          4.9359912371       -3.2354394942        1.2740091737
 H          5.8940150791       -3.8755393035       -0.0806643182
 H          5.5576225929       -0.0204012809       -3.0015018413
 H         -0.3217762836       -1.4449961602       -1.8809690881
 H         -1.0610452256       -1.2216436467       -0.2825771850
 H          0.5178807519       -2.0089285726       -0.4281445963
 H         -4.7670708017        2.8610027039        0.1706184368
 H         -3.9676971616        2.5744222677        3.0905005719
 H         -5.0170774819        1.4602355834        2.2050599379
 H         -5.5305800187        3.1236579629        2.4832200786
 H         -2.8384543899        4.5178221398        1.8443674219
 H         -3.2178917030        4.7863363409        0.1344905673
 H         -4.4600067142        4.9982772433        1.3579723771
 H         -0.8486537454        2.6026123165        3.1752756934
