25
 energy: -42.242135569773 gnorm: 0.006873373913 xtb: 6.6.1 (8d0f1dd)
C            3.38270130366675        1.46161738321468       -0.00731865892530
N            2.57987482471316        0.26636873763056        0.01084359527813
C            3.01381733670947       -0.98483093557531        0.03668997582860
N            1.97690349692012       -1.83702451846140        0.03727109707053
C            0.82551697823545       -1.10380946674030        0.01902048257730
C            1.20907021233151        0.23401183015532        0.00320298501035
C            0.21480708766726        1.28414417628020       -0.02063138124413
O            0.41494848511106        2.47233825024920       -0.04391007576218
N           -1.08048866824304        0.73412010461535       -0.00845465834930
C           -2.20276370469750        1.65800439512556        0.01492196556798
C           -1.34589015809846       -0.60353907800972       -0.00702722248834
O           -2.61547757142109       -0.90631897363228       -0.02120597865660
N           -0.43112441216946       -1.54605907884021        0.01212084671897
C           -2.97116880579327       -2.28609893145257       -0.02928521308821
H            3.97036805668885        1.53969239847515        0.90803879752536
H            4.06221838665142        1.44715720307313       -0.85954289469529
H            2.72136337583651        2.32347690982468       -0.08387806995304
H            4.04673213278321       -1.27813981698415        0.05120680874217
H           -1.80217598467554        2.66942306895587        0.02967405408185
H           -2.82405576647373        1.51731099526946       -0.86829776993089
H           -2.80662501500630        1.48189841370294        0.90329959945493
H           -2.55019850590525       -2.79699050020834        0.83771219637900
H           -2.60651229645052       -2.77195941790714       -0.93610226263876
H           -4.05901754435810       -2.30694910842583        0.00330894284265
H            2.03760827007791       -2.84960549873433        0.04951445655410
