25
 energy: -42.151839754719 gnorm: 0.006511530689 xtb: 6.6.1 (8d0f1dd)
C            3.24937336852887        0.98537889235562        0.04099511630024
N            3.40471535079466       -0.36549325919677        0.01579809874960
C            2.66433139999170       -1.36926500390103       -0.00524966527453
N            1.28327545346893       -1.52597972005045       -0.01468909309592
C            0.18409253942483       -0.71789257688852       -0.00538765049034
C           -0.04346953217498        0.68012350628177       -0.00773109688096
C            0.77628245277914        1.78700698417741       -0.01274449040493
O            0.73398063385143        2.96601396505597       -0.04681372171353
N           -1.43775717057416        0.86255750308095       -0.00563951276274
C           -2.17451412849420        2.09966236550957       -0.00633872799792
C           -2.06509716680299       -0.34881510109630       -0.00104109816145
O           -3.23736888155164       -0.58667729491600        0.00429193559331
N           -1.03277134994421       -1.31227686220225       -0.00204919430674
C           -1.34180915293332       -2.71853530049534        0.00043521041932
H            3.67610116916530        1.41580158194437        0.95048997006015
H            3.70806695241006        1.45219393015323       -0.83474508642493
H            2.11195594515854        1.32604320324858        0.02758076118997
H            3.16771385666479       -2.32721284188640       -0.02012234879778
H           -1.49926811727661        2.95064627613918        0.01182108759464
H           -2.79928516161994        2.15143832865608       -0.89957186615812
H           -2.82639600096489        2.13327269849405        0.86795502387488
H           -0.95371542803053       -3.21090292794344        0.89386795452010
H           -0.96944338569231       -3.21055147065487       -0.89996927339837
H           -2.43025143472809       -2.79405403505009        0.00941622779139
H            1.01168930265072       -2.50424429921477       -0.02938694232557
