  25
        -42.16801275
 C          3.1370642675        1.2378479449       -0.1371464269
 N          2.2921489540        0.0755775259       -0.0662527149
 C          2.6897602798       -1.1946447725       -0.0374132753
 N          1.6099458107       -2.0085632315        0.0448399863
 C          0.4892455539       -1.2220326780        0.0655490081
 C          0.9176689775        0.0936197705        0.0022817394
 C         -0.0195069907        1.1985897500        0.0382049870
 O          0.2547239517        2.3710282389       -0.0459402944
 N         -1.3333349105        0.7117192107        0.2048695639
 C         -2.4149270125        1.7299660546        0.2607778336
 C         -1.7358940671       -0.5588478360        0.2502446581
 O         -3.3007460418        1.5710654935       -0.7733406198
 N         -0.8244747416       -1.5443729438        0.1609934001
 C         -1.2537172073       -2.9284960310        0.1747852689
 H          3.6413835168        1.3992432218        0.8177736969
 H          3.8901527091        1.1104507575       -0.9143034582
 H          2.5184780377        2.1070828859       -0.3583807914
 H          3.7071379100       -1.5324511875       -0.0742759960
 H         -1.9367765166        2.7032872821        0.1267783319
 H         -3.9131784298        0.8450494832       -0.5975647375
 H         -2.8710430952        1.6613076012        1.2611053885
 H         -0.8760107185       -3.4436881815        1.0595583172
 H         -0.9089571256       -3.4433121721       -0.7230597616
 H         -2.3406292032       -2.9409150109        0.1965334300
 H          1.6363214129       -3.0179489109        0.0683488415
