25
 energy: -42.108233755571 gnorm: 0.002999395996 xtb: 6.6.1 (8d0f1dd)
C            3.13669893186661        0.92597329859769        0.26809740407099
N            2.24501185700568       -0.05334908462295        0.18119887694943
C            2.47334525201483       -1.38702859150292        0.17277985506961
N            1.29393293875651       -2.06114601833465        0.09878199977059
C            0.28727790652281       -1.14814966157725        0.05668523206947
C            0.86512434642939        0.11035812723452        0.10096735122778
C            0.07443569499736        1.31944587032706        0.05986450476949
O            0.50601060877596        2.44743244895363        0.07746551971066
N           -1.28937498413145        1.02797086665498       -0.00803850157366
C           -2.21396426019292        2.15168712973801       -0.05726782741657
C           -1.89125962013312       -0.21582746180650       -0.03131410448485
O           -3.08133168507716       -0.35452215332131       -0.07548294988356
N           -1.03979498887405       -1.34380484231937       -0.00371124082942
C           -1.63057017721515       -2.66691422073568       -0.02234913367847
H            4.17907632311652        0.68859691988844        0.35754390319819
H            4.52872483385330        3.04175275760553       -1.43227578356456
H            2.78359425609241        1.94039772622044        0.27601856375353
H            3.44027010173161       -1.84434679596451        0.22452940511346
H           -1.63126832045173        3.06966769926413       -0.06462729800487
H           -2.82881347898991        2.08346612854276       -0.95444958014617
H           -2.87254817158965        2.12877777169344        0.81093016812382
H           -1.35514181790322       -3.22042708091927        0.87572831926988
H           -1.31793844235377       -3.21436673452071       -0.91197238957274
H           -2.71269264576126       -2.54140442769193       -0.04473852795067
H            1.21162705561039       -3.06600112980350        0.07680785190850
