  25
        -42.16441263
 C          3.4387056227        0.8376583016       -0.2344345980
 N          2.4295782355       -0.1792434586       -0.1331251819
 C          2.6162479439       -1.4876552629        0.0050152673
 N          1.4187639793       -2.1198330460        0.0953759934
 C          0.4439671181       -1.1772403089        0.0131814733
 C          1.0741816115        0.0635482959       -0.1310708520
 C          0.3467378297        1.2605719854       -0.2299712192
 O         -1.3678786680        3.2019275493        0.7566724363
 N         -0.9773177598        1.0791711863       -0.1786976482
 C         -1.8097007877        2.3081465493       -0.1851954635
 C         -1.6782891612       -0.1294204153       -0.0728464890
 O         -2.8746727011       -0.1952557348       -0.0851390687
 N         -0.8914647344       -1.2946199411        0.0420375954
 C         -1.5526737359       -2.5765912091        0.1893262747
 H          3.9036292821        1.0114317059        0.7374428450
 H          4.2089774974        0.5418359067       -0.9451688451
 H          2.9617474559        1.7577101351       -0.5663034503
 H          3.5670629960       -1.9806658647        0.0390487825
 H         -1.7920510200        2.7117218480       -1.2040878655
 H         -2.8292153901        2.0162659408        0.0822278334
 H         -0.5928724501        3.6823153258        0.4367526884
 H         -1.2595764503       -3.0489462114        1.1271929800
 H         -1.3120823240       -3.2279262255       -0.6514165278
 H         -2.6263951751       -2.3937944458        0.2013799476
 H          1.2970566753       -3.1169862749        0.2048512098
