  25
        -42.09837179
 C          2.0431344853       -0.5423383634        1.7969679201
 N          1.8117403405       -0.4251054897        0.3718279388
 C          2.7212348761       -0.9025704407       -0.5322847719
 N          2.7562507909       -0.7661289984       -1.7776142056
 C         -0.5807250757        0.0596181641        0.1059705947
 C          0.7567174209        0.4563037547       -0.0318985154
 C          1.1090261973        1.6678660059       -0.5046438150
 O          1.5040818463        2.6607744123       -0.9272819539
 N         -1.7733159947        0.7075544593       -0.0828466488
 C         -2.1939652503        2.0646423378       -0.2653728098
 C         -2.4485302185       -0.4929250877        0.2918893382
 O         -3.5702023783       -0.8238478247        0.4009375139
 N         -1.1773982270       -1.1171907897        0.4823669121
 C         -0.7798836818       -2.4904158289        0.5889106776
 H          2.6381846178       -1.4308094639        1.9965726626
 H          2.5783956510        0.3281133216        2.1854542136
 H          1.0932912568       -0.6238546538        2.3244154106
 H          3.5015691918       -1.5077246274       -0.0825813339
 H         -1.7137810159        2.4991441757       -1.1437012896
 H         -3.2724484245        2.0554021431       -0.4164176381
 H         -1.9639291171        2.6745684681        0.6126496373
 H         -0.0701082975       -2.6283200077        1.4059559568
 H         -0.3310433772       -2.8472795732       -0.3410140000
 H         -1.6769009935       -3.0719282005        0.7984136941
 H          2.0672801035       -0.2164865836       -2.2743289732
