  25
        -41.99375594
 C          3.6168830792        0.7863553695        0.4714832721
 N          2.5002306058        0.0031822854        0.0390219189
 C          2.4169713863       -1.3793259009        0.4682342966
 N          1.3318238729       -2.0345101256       -0.2493228423
 C          0.4557232505       -1.0835701227        0.0823091033
 C          1.4201883399       -0.3509758465        0.9469960201
 C         -1.2344096579        2.0747845664       -0.8009059968
 O         -1.3217694893        2.7410073779       -1.7261168702
 N         -1.1066463890        1.2658789809        0.1476096465
 C         -0.7044059850        1.6422200780        1.5076941344
 C         -1.7600373627       -0.1000271026       -0.0206376227
 O         -2.9458844531       -0.1438149225       -0.0833148764
 N         -0.8900652489       -1.1329816399       -0.1197039055
 C         -1.4689486369       -2.4266406845       -0.4977209828
 H          3.9821345039        0.5098074763        1.4671141297
 H          4.4210851906        0.6511366863       -0.2524785451
 H          3.3221930758        1.8344685331        0.4749703443
 H          3.2183384410       -1.9262934985        0.9268977019
 H         -0.4155828065        2.6887138456        1.5332375082
 H         -1.5432678223        1.4751743588        2.1824162491
 H          0.1534716832        1.0117794775        1.7865948084
 H         -1.0854879852       -3.2028197676        0.1615098114
 H         -1.2219674285       -2.6611916555       -1.5325975118
 H         -2.5496538323       -2.3717224081       -0.3964618786
 H          1.2826033175       -2.8780273252       -0.8032599498
