25
 energy: -42.442998205194 xtb: 6.6.1 (8d0f1dd)
C            3.30529609981777        1.12152970673530        0.10940952494552
N            2.36424522923156        0.04274280240013        0.03946629034934
C            2.64686677471523       -1.27520877894557        0.06710962078359
N            1.49558964543526       -1.98093627367060        0.00880382439024
C            0.45722275378756       -1.11227054081691       -0.05354007379359
C            0.97910133044812        0.18526305526305       -0.04196925360369
C            0.17771716010082        1.34174405848946       -0.11011096251594
O            0.56766867414349        2.51235502735426       -0.10397242562280
N           -1.21268305583902        1.02683996528581       -0.20130068332442
C           -2.08614630331627        2.04541913010993       -0.33370247543111
C           -1.75528103503998       -0.26956360094898       -0.18278916422963
O           -2.94955515449273       -0.46746695680653       -0.24387048499828
N           -0.87026535317998       -1.35124223949903       -0.11365285523659
C           -1.39503195986609       -2.69873194116408       -0.11524505371509
H            3.78976084994398        1.14288918169142        1.08743779920523
H            4.06935295561258        1.00992346707985       -0.66094775731944
H            2.75856389715161        2.05295990047965       -0.04009689192300
H            3.62473299624912       -1.69840111385776        0.13314782478175
H           -1.67993925924012        3.03931973239687       -0.29880261688110
H           -3.13366506778855        1.84306902365062       -0.20530786754441
H           -4.11500554179465        3.56625362056147        1.41643256163907
H           -1.09210571781037       -3.22672576901374        0.79055189267481
H           -1.05007343005851       -3.24174784930123       -0.99729780109553
H           -2.48140478794757       -2.62379810131039       -0.14389405489429
H            1.42841951674166       -2.98636707062137        0.01603317292739
