25
 energy: 0.000000000000 xtb: 6.6.1 (8d0f1dd)
C            3.23720163006194        1.16630919979326        0.08434469647475
N            2.29877817382611        0.07527477071623        0.03981603040599
C            2.58028210190900       -1.21425402444508        0.03006176031096
N            1.43813958087363       -1.93419271955128        0.00098261760884
C            0.39035688448383       -1.05887472636071       -0.00790371836672
C            0.93510056364412        0.21347819449412        0.01709077491437
C            0.09450143893243        1.40504303904423       -0.00410947031874
O            0.49712751527797        2.54126714362870       -0.00342325688240
N           -1.25076640035757        1.06271879480407       -0.03085478223738
C           -2.21907211982101        2.15522099834493       -0.05001256985998
C           -1.81739487048744       -0.20012725993278       -0.04692818574614
O           -2.99983886758376       -0.37846417018721       -0.07008878229737
N           -0.92618586207120       -1.30210215599479       -0.03682761578324
C           -1.46982264913417       -2.64643102187190       -0.06029820460571
H            3.71247264356769        1.21471455160235        1.06488849150277
H            4.00791497605742        1.03430808813993       -0.67357694370751
H            2.69910007168542        2.09770118228144       -0.09130154882931
H            3.56654120610678       -1.63682992603973        0.04233140067262
H           -1.67107961066214        3.09322851271934       -0.02552706933167
H           -2.82428953597071        2.09428624779827       -0.95318082946668
H           -2.87644029173232        2.07745725625962        0.81450067533302
H           -1.17061996399332       -3.19584890659852        0.83242232437030
H           -1.14560257411436       -3.17511610292205       -0.95688275822323
H           -2.55549792440841       -2.55659984320617       -0.07459039797972
H            1.38130855184625       -2.94313852034425       -0.01389874181052
25
 energy: -2.363054792126 xtb: 6.6.1 (8d0f1dd)
C            3.25420058473422        1.16627571293687        0.09061310790594
N            2.31381531121678        0.08875983997000        0.03761221381837
C            2.60695216251430       -1.23805672279310        0.03653683546584
N            1.43722592300770       -1.94701889008506        0.00211979285685
C            0.40453229211972       -1.06321291740490       -0.01618005326415
C            0.93439508134463        0.21659931800116        0.00635526120941
C            0.09894905203233        1.39017060937856       -0.01976067765425
O            0.50215505148509        2.55335335349354       -0.02249431498164
N           -1.27211243852564        1.05307691921942       -0.01790542095046
C           -2.24655440321458        2.15934427513954       -0.01651356187029
C           -1.82018409311990       -0.20692866072912       -0.05784510137179
O           -3.01431366045277       -0.39807963260033       -0.09353239434866
N           -0.92552161427517       -1.30709001285823       -0.05171556082030
C           -1.45659371825223       -2.65295918993625       -0.07304335052067
H            3.73320059551973        1.20548147133716        1.07253486752431
H            4.02265462282034        1.03158555606897       -0.67217022019900
H            2.71172438672740        2.09345939982191       -0.08112047899582
H            3.58570973138469       -1.66233923290407        0.05956527320157
H           -1.66311717845868        3.07937171342276       -0.09409144039366
H           -2.89241329284648        2.05209367255024       -0.87942138202936
H           -2.95835328922358        2.28271489761802        0.85979651171792
H           -1.15240208462220       -3.20059525925703        0.82135219722640
H           -1.12425867956594       -3.18642069924566       -0.96597492332721
H           -2.54214928121085       -2.56928935472624       -0.08921539201027
H            1.37467360679727       -2.95126756424615       -0.00846789204176
25
 energy: 7.502376977844 xtb: 6.6.1 (8d0f1dd)
C            3.27515912281853        1.15672188212176        0.09880863965152
N            2.32473306901043        0.09707783403877        0.03269838771055
C            2.62768278914342       -1.25989971010889        0.04773713089008
N            1.43502406407147       -1.95519407143085        0.00531792234588
C            0.41847412577325       -1.06829687568564       -0.02774990612117
C            0.92927276235001        0.22014334151687       -0.00794932818764
C            0.09996809498601        1.37168436533715       -0.02933403117332
O            0.49894853355465        2.54950963799803       -0.05281249988510
N           -1.30781879999306        1.05158925715388        0.01736892884335
C           -2.28112043719965        2.17785214253299        0.02176935836757
C           -1.82104355702343       -0.21235792801944       -0.07031985614450
O           -3.01683504788274       -0.42777489829558       -0.13701938272398
N           -0.92345598349999       -1.30955867262172       -0.07569951851742
C           -1.43562220765055       -2.66077143442592       -0.09341527524251
H            3.76217939219990        1.18501436361164        1.07987195741491
H            4.04308975641685        1.02555482594760       -0.66824316568557
H            2.73596380194702        2.08625763346245       -0.06390953646762
H            3.60017365913673       -1.68425120690744        0.08674386272257
H           -1.65623065536607        3.07026719163752       -0.20840702846003
H           -3.00748332613530        1.97387671594109       -0.76729309321375
H           -3.02190500557866        2.55635202181014        0.92738026650561
H           -1.12608820776652       -3.20493356122137        0.80390868519826
H           -1.09271479929560       -3.20123378515659       -0.98039675128946
H           -2.52160281206164       -2.59087975134127       -0.11290440998449
H            1.37346633598111       -2.95772071572315        0.00088253959353
25
 energy: 17.469949977995 xtb: 6.6.1 (8d0f1dd)
C            3.29429848589398        1.14049312783168        0.10298217919693
N            2.33058691333141        0.09383759381802        0.02869112926866
C            2.63314695869353       -1.27245490183772        0.05865620791316
N            1.43483916227527       -1.95923349065388        0.01235328334654
C            0.42565755065179       -1.07097619664373       -0.03569393644316
C            0.92839065910450        0.22207194995789       -0.01831483587537
C            0.10123807432270        1.36968572602243       -0.03403787116516
O            0.49785714981679        2.54732475050209       -0.08224252711312
N           -1.33086125764104        1.06555439254444        0.04757714501283
C           -2.31082092696387        2.20293304034721        0.04558067637000
C           -1.82047267433231       -0.20852757324635       -0.08605993167454
O           -3.01249320202971       -0.44479130368725       -0.18111314465402
N           -0.91934072504928       -1.30512298628067       -0.09712156021777
C           -1.41712537095625       -2.66301677899964       -0.10985037393955
H            3.78835266061514        1.15647141922575        1.08184993713311
H            4.06085445486641        1.01096008577156       -0.66713211732475
H            2.76639771420683        2.07844265364384       -0.05039754485047
H            3.60447620675625       -1.69866637460295        0.11445587654867
H           -1.69273614880346        3.07022923660852       -0.29875420422171
H           -3.11233351543869        1.90785150533472       -0.65649583031962
H           -3.04382796953578        2.72863132698115        0.97086659459067
H           -1.10323664561904       -3.20032348001090        0.79136041603674
H           -1.06346328424152       -3.20877367354757       -0.99035775806917
H           -2.50388021102161       -2.61045671769314       -0.13426151087123
H            1.37671060903411       -2.96311472921347        0.01449359746967
25
 energy: 21.503423209269 xtb: 6.6.1 (8d0f1dd)
C            3.30654433777141        1.12716463545353        0.10209502638247
N            2.33331809691928        0.08732302447693        0.02653819017477
C            2.63057115314432       -1.27544295974708        0.06412984270222
N            1.43588972927841       -1.95955341474667        0.01875367686016
C            0.42739405046035       -1.07114881637459       -0.03716252510543
C            0.93063976814983        0.22257167772283       -0.02157478514376
C            0.10381062584777        1.37472282904415       -0.03253871795606
O            0.49761106656710        2.54616696177932       -0.09981198779518
N           -1.33820129474359        1.07792046595951        0.06541363729797
C           -2.32896183677531        2.21573590835561        0.05374282456187
C           -1.81945704715483       -0.20177771632825       -0.09839353728682
O           -3.00592109542732       -0.44785621792050       -0.21391250341111
N           -0.91616328132234       -1.29839137453330       -0.10809699591043
C           -1.40710280529789       -2.66067584840280       -0.11693321798369
H            3.80560958644892        1.13350080578769        1.07829736679760
H            4.06967176010559        0.99698759058657       -0.67156107556817
H            2.78853951540542        2.07222066727402       -0.04444474603823
H            3.60248498192855       -1.70320019206396        0.13119123551466
H           -1.74186864264394        3.06012552916603       -0.33646557049404
H           -3.15369778903640        1.87981679364393       -0.58280530034964
H           -3.05909494672924        2.79815321505681        0.97784666418769
H           -1.09030884670846       -3.19140302321793        0.78736702002206
H           -1.04597281289943       -3.20805429936381       -0.99337760268870
H           -2.49402889825103       -2.62089045605048       -0.14514302441244
H            1.38090929289903       -2.96498718338551        0.02388000178953
25
 energy: 21.558204555722 xtb: 6.6.1 (8d0f1dd)
C            3.30935562116700        1.12199858834082        0.10460580800413
N            2.33369860512837        0.08282956493082        0.02893165398619
C            2.62546633252644       -1.27176477968909        0.06470459617446
N            1.43692118188184       -1.95770325477576        0.01986572200855
C            0.42544362491953       -1.07025421595199       -0.03365258641972
C            0.93312271020923        0.22236225648065       -0.01853239400667
C            0.10790135218923        1.38046234153957       -0.02957375750571
O            0.49851912204281        2.54654597029260       -0.10721191025089
N           -1.33421906090159        1.08317101530647        0.07549728001620
C           -2.33215869246382        2.21872155169034        0.05291976996697
C           -1.81926720190361       -0.19565277761322       -0.09802658658839
O           -3.00134551129074       -0.44158070018235       -0.22776728821449
N           -0.91571901075950       -1.29293458659268       -0.10893127576064
C           -1.40680638599491       -2.65641149256866       -0.12148591414225
H            3.80941116365259        1.12247916129874        1.07942323749211
H            4.06969114805401        0.99236861405161       -0.67150466682223
H            2.79508206718198        2.06958945356422       -0.03788994623389
H            3.59823528555872       -1.69983124865403        0.13598770345491
H           -1.76693344168631        3.04593912135430       -0.39002138430766
H           -3.17262086876783        1.84272740722788       -0.52899397116423
H           -3.03988360241282        2.81744943083217        0.98546736973054
H           -1.08976191514517       -3.18672861430250        0.78236512274687
H           -1.04281128799042       -3.19996202899208       -0.99850731221925
H           -2.49315633084259       -2.62101075333916       -0.15175371539956
H            1.38404976358373       -2.96378142207662        0.02111834160198
25
 energy: 19.745073928741 xtb: 6.6.1 (8d0f1dd)
C            3.30821475931010        1.12237521395093        0.10580661567333
N            2.33397995279288        0.08119568317679        0.03106698278552
C            2.62254118038729       -1.26818387002460        0.06335380949098
N            1.43702550047537       -1.95627864308747        0.01970610917247
C            0.42330774604784       -1.06895775477480       -0.03001098376089
C            0.93478537682213        0.22251294820321       -0.01448637731025
C            0.11122729318097        1.38349576663710       -0.02581966244491
O            0.50020183733345        2.54799829140881       -0.10865878056831
N           -1.32725127756970        1.08409295402332        0.07808768799637
C           -2.32807997781812        2.21820323104752        0.04845830228780
C           -1.81910272445110       -0.19197295507182       -0.09845709482349
O           -2.99952604070201       -0.43522646952682       -0.23187523100611
N           -0.91645640307042       -1.29025985777969       -0.10663612121091
C           -1.41000367814883       -2.65358475217421       -0.12194568770013
H            3.80778764172095        1.12232493070741        1.08023516083300
H            4.06772216620231        0.99326510472434       -0.67079868159463
H            2.79294354807695        2.06906776872769       -0.03630000323040
H            3.59546540750366       -1.69719653873168        0.13526774429659
H           -1.78158355495577        3.03328504757850       -0.41270576552208
H           -3.16984239080702        1.82638356498842       -0.50136292387000
H           -3.01848672188485        2.80637645470903        0.97930976240808
H           -1.09410945090911       -3.18566867881714        0.78093703842142
H           -1.04629457901102       -3.19508652221580       -1.00012831359580
H           -2.49594442104178       -2.61680556969077       -0.15296872697557
H            1.38369347845196       -2.96232674581624        0.01695903639526
25
 energy: 18.459307426528 xtb: 6.6.1 (8d0f1dd)
C            3.30664613458033        1.12439813288746        0.10825251383933
N            2.33442687465295        0.08170609015717        0.03266453502921
C            2.62252648628708       -1.26743845593914        0.06187681872585
N            1.43655696166998       -1.95601914538830        0.01828204852838
C            0.42271527707833       -1.06800637176849       -0.02867529086112
C            0.93525179745008        0.22311319487227       -0.01214862768876
C            0.11282702384468        1.38412076921734       -0.02417148458731
O            0.50162613934322        2.54973322268216       -0.10651866736925
N           -1.32309227084528        1.08391017230229        0.07986814331873
C           -2.32442052733003        2.21827586135468        0.04712588533713
C           -1.81862086610995       -0.19019767015491       -0.09668775151780
O           -2.99961915687725       -0.43188257456798       -0.23012690109858
N           -0.91709233404328       -1.28952095767960       -0.10508671152386
C           -1.41264204799163       -2.65213070541234       -0.12336765293478
H            3.80502871321851        1.12500709677402        1.08328960290151
H            4.06690758762033        0.99585354701485       -0.66758490716223
H            2.78933020442607        2.06973590063752       -0.03454317772430
H            3.59491422611444       -1.69747455076552        0.13375919199882
H           -1.78447071849509        3.02927860577715       -0.44017743319338
H           -3.17610839144885        1.80672703628609       -0.48357654355694
H           -2.99581159848401        2.80356763266639        0.98036651919576
H           -1.09779487377920       -3.18675683069129        0.77835405943283
H           -1.05003887535437       -3.19249009810865       -1.00280514784267
H           -2.49856287816985       -2.61276065066189       -0.15433496900416
H            1.38173178057892       -2.96172064931927        0.01299984390494
25
 energy: 17.750315159113 xtb: 6.6.1 (8d0f1dd)
C            3.30580324320240        1.12586434051587        0.10823622790107
N            2.33441576682463        0.08269671296588        0.03237416445013
C            2.62342077527021       -1.26801845237768        0.06064631547433
N            1.43603118601633       -1.95616048024287        0.01761678062975
C            0.42289296036804       -1.06754174358707       -0.02907678641580
C            0.93477502720678        0.22356972630729       -0.01192194183866
C            0.11160830235057        1.38325675332575       -0.02363505218660
O            0.50083899799294        2.55010825861009       -0.10305340776765
N           -1.32288275808188        1.08316909855342        0.07957665870393
C           -2.32398038275735        2.21811229731258        0.04719617229138
C           -1.81849740285653       -0.19056206547081       -0.09653529014581
O           -3.00050094877655       -0.43225671592621       -0.22726991221190
N           -0.91729353327399       -1.29015822055348       -0.10454445872468
C           -1.41314550250288       -2.65237201576715       -0.12299290114983
H            3.80377470423697        1.12780906441409        1.08374182218242
H            4.06697836408824        0.99715612707485       -0.66674869887815
H            2.78746983641939        2.07056439762755       -0.03561216047380
H            3.59526319282306       -1.69873528204605        0.13292983766381
H           -1.78416345470237        3.02658422910305       -0.43970755131036
H           -3.17133997589718        1.80949642383331       -0.48427482088770
H           -2.99017683983483        2.80054276844149        0.97504749614550
H           -1.09838518122164       -3.18759496827377        0.77853396241139
H           -1.05135163190737       -3.19319496906183       -1.00263687981235
H           -2.49926365071019       -2.61166699332085       -0.15344114733225
H            1.37992357365935       -2.96163968928538        0.01258546742915
25
 energy: 17.163746764190 xtb: 6.6.1 (8d0f1dd)
C            3.30556419781423        1.12657979866852        0.10838058084836
N            2.33436282800149        0.08361247204250        0.03170191724646
C            2.62464245048253       -1.26920166254217        0.05900978041683
N            1.43551782604791       -1.95640898012361        0.01686048317141
C            0.42350206296760       -1.06711143869089       -0.03023653824518
C            0.93432913455231        0.22394413626345       -0.01232549346968
C            0.10990909155365        1.38234029840480       -0.02360554011412
O            0.50016919947688        2.55020320115228       -0.09882702772614
N           -1.32329118160622        1.08309744919275        0.07935636426684
C           -2.32516918410998        2.21874169314891        0.04802584712769
C           -1.81793685727234       -0.19075877798800       -0.09606512281886
O           -3.00104530619214       -0.43267147157479       -0.22359730528455
N           -0.91720277428858       -1.29072440458358       -0.10452025258919
C           -1.41293073467089       -2.65256363567504       -0.12300381841599
H            3.80301609474124        1.12943509154442        1.08447622874566
H            4.06774764740698        0.99763381519345       -0.66570227479119
H            2.78696854888467        2.07115972883514       -0.03624156772715
H            3.59580437913775       -1.70039162310948        0.13309405489438
H           -1.78519801662307        3.02454959710650       -0.43955240767911
H           -3.17210110542391        1.81077977812420       -0.48472237845894
H           -2.98361066184931        2.80177850807481        0.96894379510660
H           -1.09815697596527       -3.18812469858308        0.77844680602212
H           -1.05160381173283       -3.19385340040681       -1.00268603073353
H           -2.49925359648658       -2.61129318557461       -0.15305207269922
H            1.37818141309003       -2.96172368672765        0.01287586905379
25
 energy: 16.970058925330 xtb: 6.6.1 (8d0f1dd)
C            3.30565327925675        1.12630923546964        0.10836881034816
N            2.33394492206504        0.08386574610146        0.03117097957383
C            2.62484033184082       -1.26943290503409        0.05776643706312
N            1.43538958162246       -1.95637818612836        0.01647807025773
C            0.42365255298087       -1.06706114428063       -0.03076659295098
C            0.93403254524886        0.22391059877031       -0.01250675347834
C            0.10859475035375        1.38213914981580       -0.02305526540584
O            0.49957098070811        2.54991644397170       -0.09711032373697
N           -1.32401303753599        1.08322522183696        0.08039416049305
C           -2.32689691582342        2.21912837400646        0.04975936685627
C           -1.81787803474372       -0.19103985061034       -0.09496008748716
O           -3.00122172552914       -0.43312996342394       -0.22192371590782
N           -0.91714870135940       -1.29091320306546       -0.10455625149242
C           -1.41243380268985       -2.65272924798115       -0.12329452146983
H            3.80305815806736        1.12881714636456        1.08456815052559
H            4.06797486501853        0.99730226870331       -0.66560687848319
H            2.78769112653836        2.07132384832186       -0.03599796911585
H            3.59586387379389       -1.70033227182721        0.13389698488362
H           -1.78550760041791        3.02365046278612       -0.44161996471208
H           -3.17274298727839        1.81156388948154       -0.48512987717748
H           -2.98108850973698        2.80465314309476        0.96622801670462
H           -1.09757509027027       -3.18825201509871        0.77816004682443
H           -1.05083055239275       -3.19382470540601       -1.00297015202057
H           -2.49877678582409       -2.61195796440423       -0.15337929606245
H            1.37806144404324       -2.96172546929228        0.01312052211786
25
 energy: 16.855389374354 xtb: 6.6.1 (8d0f1dd)
C            3.30589426503646        1.12574152369995        0.10830759600219
N            2.33357669212669        0.08379595997599        0.03092617872637
C            2.62457166975691       -1.26917071969556        0.05693685335098
N            1.43542585720625       -1.95626379539591        0.01653490973058
C            0.42353333074438       -1.06712766491750       -0.03071121989225
C            0.93399259469253        0.22375901308153       -0.01260845825923
C            0.10814429632850        1.38239723842379       -0.02283694353291
O            0.49962775361388        2.54964493609453       -0.09772733252341
N           -1.32425990953231        1.08350036639923        0.08109565784498
C           -2.32799723586137        2.21950278314764        0.05099559205468
C           -1.81799215914289       -0.19105045694106       -0.09448993759027
O           -3.00112222583653       -0.43305049639217       -0.22217961038501
N           -0.91719616509398       -1.29070523531083       -0.10463572888078
C           -1.41214181750729       -2.65267400349937       -0.12345014854691
H            3.80345748526441        1.12749617607290        1.08435795675828
H            4.06789239306743        0.99670926774858       -0.66596201069835
H            2.78863865776967        2.07119563712854       -0.03551543327410
H            3.59569993098586       -1.69954654608239        0.13524820908819
H           -1.78625712438601        3.02324487284168       -0.44148003024405
H           -3.17457298843269        1.81149654423961       -0.48526233249366
H           -2.97961310143402        2.80595218734223        0.96494921374593
H           -1.09730930750698       -3.18800010111811        0.77810571569227
H           -1.04998987855532       -3.19352025660773       -1.00300033061411
H           -2.49841039108698       -2.61260151226085       -0.15387484287162
H            1.37862204571954       -2.96169711580265        0.01331037295952
25
 energy: 16.808170642757 xtb: 6.6.1 (8d0f1dd)
C            3.30593979475439        1.12545823322380        0.10820056791143
N            2.33328814783178        0.08369450695861        0.03097100776671
C            2.62410918354338       -1.26862043955350        0.05620006970826
N            1.43549821561605       -1.95614354877510        0.01677743835179
C            0.42320578615094       -1.06728041756480       -0.03012354084842
C            0.93393718124387        0.22361741010038       -0.01243242459755
C            0.10812129873988        1.38265283946744       -0.02254048731714
O            0.49959977373637        2.54940702830057       -0.09927185574780
N           -1.32437676494677        1.08338280633781        0.08213211715222
C           -2.32828888807974        2.21951783681510        0.05205909785093
C           -1.81838896438642       -0.19117139984883       -0.09438199377863
O           -3.00109638472556       -0.43301660323809       -0.22341723282387
N           -0.91737456034888       -1.29047712904746       -0.10459878573720
C           -1.41214305318363       -2.65266447384551       -0.12347878967265
H            3.80383175291123        1.12654086243201        1.08396156646559
H            4.06745588531341        0.99651935961820       -0.66651642072050
H            2.78901506180570        2.07111674566863       -0.03510200408846
H            3.59540837895069       -1.69851590894994        0.13648709062559
H           -1.78604912931269        3.02306557806668       -0.44163874690462
H           -3.17428217933345        1.81174553880326       -0.48554597101888
H           -2.97936583809197        2.80595362516490        0.96527390374943
H           -1.09733259606788       -3.18784236321251        0.77814185237672
H           -1.04956875885309       -3.19326716963253       -1.00295231645549
H           -2.49832694982735       -2.61299633281582       -0.15422585039139
H            1.37939827449589       -2.96164798230126        0.01305560429125
