25
 energy: -42.164448175188 gnorm: 0.005552546118 xtb: 6.6.1 (8d0f1dd)
C            3.27832565658150        0.99289384212626        0.12951962110392
N            2.31158614845251       -0.06794316814233        0.06344737925169
C            2.55423843234516       -1.37198722822350       -0.02226682254308
N            1.38510340666551       -2.05931347329241       -0.06617572761093
C            0.36875514786481       -1.15633077494534       -0.00661252630026
C            0.94608215252303        0.11523116413553        0.08026687261529
C            0.16829939353331        1.28177621807756        0.14940113865088
O           -1.68504063663418        3.11843976482956       -0.83441185930639
N           -1.14904598882946        1.04283596082996        0.14097941873750
C           -2.03166187805170        2.24226535636134        0.15846517979627
C           -1.79678581709776       -0.19451144049632        0.06271002846853
O           -2.98989300553514       -0.31768337180665        0.06801646243553
N           -0.95994974220739       -1.33031159308267       -0.02014899261479
C           -1.56770723964402       -2.64163471663517       -0.13674599809478
H            3.78367809961899        0.99284548795485        1.09648528422109
H            4.02417809203306        0.87795838780491       -0.65622896095884
H            2.75294508600436        1.93768067911339        0.00286367567712
H            3.52567737401683       -1.82372020420594       -0.05363411155612
H           -0.84523363232792        3.55620294983142       -0.63165923834329
H           -3.05385850236278        1.90136692957641       -0.02981776117212
H           -1.96171722869289        2.67517615818670        1.16933300606376
H           -1.32687115134688       -3.25208112676467        0.73445902547179
H           -1.22849541422463       -3.13492435490845       -1.04753401398832
H           -2.64652862334236       -2.50151165613429       -0.18539873595047
H            1.30435138475846       -3.06448124858960       -0.13414072615431
