25
 energy: -42.140618095903 gnorm: 0.004284479735 xtb: 6.6.1 (8d0f1dd)
C            4.04623049865136        0.71756032848879        0.30408404319905
N            2.72748628968324        0.20244125316847        0.22056709698547
C            2.46915019132201       -1.02239589286279        0.06551554163698
N            1.19093342610623       -1.49882643555191       -0.01935976460560
C            0.05906716651819       -0.73796076324975        0.05196437573107
C           -0.09231404493985        0.60711240548923        0.26107498500344
C           -2.01292470104914        2.86591506613891       -0.87194355885947
O           -1.72311848053837        3.17617567032789       -1.94453603559180
N           -1.44708629725580        0.86382287911060        0.25644573525348
C           -2.13763760720930        2.13201619655119        0.35050931293761
C           -2.14783260937803       -0.31416271796382        0.01730427087900
O           -3.34579385313345       -0.41274429308833       -0.05995701972013
N           -1.18914224257720       -1.29778905562260       -0.09132969935558
C           -1.51423739276365       -2.68157747489297       -0.32559520308964
H            4.15336170054260        1.24107963971377        1.25544046732580
H            4.82041755115721       -0.05385110259621        0.22455470145602
H            4.18154037817311        1.44963649042504       -0.49376175763945
H            3.23109020000709       -1.80520847728610       -0.01688188460253
H            0.65417584570220        1.35238964328169        0.42983372487316
H           -3.20279607147638        1.88748116365416        0.52023961076688
H           -1.77556869744311        2.72593462049262        1.20097455614936
H           -1.17431315575990       -3.30679207168346        0.50166560193454
H           -1.07920210220477       -3.03122130839983       -1.26325497399467
H           -2.59965357047402       -2.74741082124960       -0.39360087455260
H            1.06859909244203       -2.49338640079743       -0.14878163422249
