25
 energy: -42.136282364104 gnorm: 0.003219571878 xtb: 6.6.1 (8d0f1dd)
C            3.95617499925998        3.36758847008800        0.12175446254508
N            2.17956903786610       -1.09446290895275       -0.03815794860138
C            2.07430733313669       -2.38802330372707       -0.07843806129486
N            0.76722769513282       -2.79930087333889       -0.09216651016547
C            0.01429686131720       -1.67134737286871       -0.05968003333206
C            0.91881528936254       -0.60098832398441       -0.02481668253646
C            0.44685704685201        0.76405340230583        0.02025085007311
O            1.12960563719435        1.76362980827402        0.04549005702147
N           -0.94934356993641        0.82921384154255        0.03295466537644
C           -1.56645818584009        2.14549517619687        0.08613028065030
C           -1.84880357948242       -0.22295052383633        0.00712755538483
O           -3.03790780424283       -0.04253764630311        0.03030621563988
N           -1.32107934812637       -1.52248587308126       -0.05009271489739
C           -2.23092931582672       -2.64708116593881       -0.09269400419854
H            4.35719076834827        3.70052443944027        1.05923164707875
H            4.52801993364185        3.49957442095569       -0.77662139032071
H            2.98063707689808        2.90977450473607        0.07993272851338
H            2.90301138504189       -3.06677700219363       -0.09572227003117
H           -0.77785842814076        2.89381495645821        0.05971721588135
H           -2.24055214831429        2.27197608716259       -0.76148116023668
H           -2.15105472440007        2.24485335280425        1.00158024316973
H           -2.10553475504766       -3.27388087384648        0.79074974842148
H           -2.06177115093421       -3.23779831758777       -0.99390184306316
H           -3.24563471797170       -2.25132238629251       -0.10782124438830
H            0.44164617831258       -3.75330334640200       -0.13246018877552
