25
 energy: 4.275591009938 xtb: 6.6.1 (8d0f1dd)
C            3.37379742050238        1.12421400445829        0.13289053508493
N            2.35674625612389        0.11901205898591        0.00310327631767
C            2.59409680924354       -1.26473896082643       -0.00560447717416
N            1.36666553968587       -1.88339735063279       -0.07065927939569
C            0.38831889806803       -0.95517000496614       -0.01518337698171
C            0.93142313158338        0.32264177434546        0.03963972249442
C            0.03631630094527        1.44295230351627        0.07608104409629
O            0.31655731234728        2.63093702021415        0.05548818331499
N           -1.46022532799069        1.08767026409487        0.03123693508498
C           -2.43367396440286        2.17286171348704       -0.16786713872081
C           -1.92532127541093       -0.17507787349129        0.16949049714248
O           -3.09717735476951       -0.46902144020576        0.19338188497702
N           -0.94704236290949       -1.21271868974820        0.06182028822675
C           -1.38713191996499       -2.59563923662401       -0.07808704703506
H            3.69581074912476        1.24709571621996        1.19007477860328
H            4.24993729148105        0.86476248015396       -0.48297616803922
H            2.98422688944483        2.07608891719984       -0.22379049329688
H            3.53519140406366       -1.78645855335990       -0.03550532967287
H           -1.82493387555659        3.07513478128474       -0.26873932755070
H           -3.06951089389029        2.02465289214308       -1.05793862348670
H           -3.09664016708855        2.28010378764467        0.69584352115317
H           -0.94256705434042       -3.23850139875722        0.69345646436722
H           -1.16522120764737       -3.00081664424010       -1.07810807081911
H           -2.46875370379947       -2.59695223879836        0.08014288501987
H            1.23080706835112       -2.88565908365250       -0.10120709997616
