25
 energy: 60.778021910514 xtb: 6.6.1 (8d0f1dd)
C            3.81379518154997        0.84239592617990        0.15288111157748
N            2.84566365557222       -0.20407026939153        0.08277277729252
C            3.09725820367525       -1.52816807268602       -0.03916000657717
N            1.91478450433055       -2.20281694694917       -0.09688694226088
C            0.83005447043629       -1.32644479213862       -0.03553497896420
C            1.45345044730502       -0.00218072644131        0.09092773594168
C            0.84045192809223        1.15555856837907        0.23441389931987
O            0.24554100185772        2.17205018926266        0.34093397588486
N           -3.03870352456754        1.68764640547935        0.00162110979903
C           -3.57414303951770        2.94916369459768       -0.32824819918388
C           -3.17497197535418        0.60139278579278        0.45225854712194
O           -3.12626663081934       -0.48499845539262        0.85563077707298
N           -0.41798087262492       -1.52862395706888       -0.07219117475300
C           -1.05318722187718       -2.80543113063404       -0.16922599519324
H            3.71211773017163        1.38774796782594        1.09560671355432
H            4.81524666709242        0.41867325377275        0.09255461574303
H            3.67418905719826        1.54856842167023       -0.67028073552834
H            4.06946723086117       -1.95885725599188       -0.09544797150193
H           -2.73972216451730        3.64019890825029       -0.45059078908783
H           -4.12883234218388        2.89078547322504       -1.26823752564893
H           -4.23710505703254        3.32014005995489        0.45754181056586
H           -0.48374543125041       -3.64243484345623        0.25643487411401
H           -1.27133697995073       -3.02591978347611       -1.21908603894483
H           -2.00528447957976       -2.71526466028515        0.35463593024833
H            1.85147394610638       -3.20008197173352       -0.19628960839742
