25
 energy: 61.390319607384 xtb: 6.6.1 (8d0f1dd)
C            3.78948321753826        0.84866907541462        0.15202381053750
N            2.83181175335244       -0.20271455665633        0.11169592890498
C            3.09862155904856       -1.52462471001579       -0.03661631947902
N            1.92025874389181       -2.20792294198312       -0.08332448781875
C            0.83524784152609       -1.33578433900421       -0.03763044524176
C            1.43764088343325       -0.00685911701688        0.09590636378777
C            0.80932780307741        1.14573039497117        0.20162545724706
O            0.30319480095220        2.20360024267130        0.36060309537554
N           -3.02797212567761        1.67705947766476       -0.03088470527213
C           -3.56274493242488        2.93656995021805       -0.33822449386111
C           -3.17620420903429        0.62507279771441        0.48800254627551
O           -3.20355927756092       -0.46212545610334        0.88301343795467
N           -0.41075388659259       -1.53810488205448       -0.07300313444298
C           -1.06214716870035       -2.80241470755610       -0.16502526844596
H            3.67531903642994        1.43155143162549        1.06987495004709
H            4.77036432264878        0.38484488077796        0.15170552673339
H            3.71664524562795        1.51395937618048       -0.71672567848132
H            4.06913293469550       -1.95047591061058       -0.12442175050291
H           -2.71891223763278        3.61566312053694       -0.45722137061928
H           -4.13029250124856        2.87126089139447       -1.26898481773279
H           -4.21758089959655        3.26072239504656        0.46814310958914
H           -0.47865599743319       -3.63010018701189        0.24680086414411
H           -1.29230442855533       -2.99277418751884       -1.21590354768312
H           -2.01953121540311       -2.72331408482365        0.36884878670081
H            1.83891581081947       -3.19823528294857       -0.21150606011856
