  72
        -99.33669945
 N         -1.1753327572        1.5241903040        2.2653988861
 C         -1.3281854949        2.0043470649        1.0816805543
 C         -2.2531025860        1.5633870344        0.1098923842
 C         -3.1494519404        0.4670053435        0.2888146020
 C         -4.0406499541        0.0552550672       -0.7307894153
 C         -4.8679688598       -1.0361888513       -0.5775892631
 O         -5.7428324758       -1.4896081756       -1.5067105618
 C         -5.8858706654       -0.7875890042       -2.7171265464
 C         -4.8367825941       -1.7915161959        0.6285979847
 O         -5.6542481854       -2.8607614684        0.6680287639
 C         -5.6693427576       -3.6701999116        1.8205862101
 C         -3.9842618980       -1.3755058243        1.6463563192
 C         -3.1675289168       -0.2762792282        1.4857450174
 C         -2.1595802923        2.2506578309       -1.2211805525
 C         -1.2828407543        1.4280980234       -2.2141427395
 C          0.1037474377        1.3441011023       -1.7207218566
 N          0.6255648139        0.3142495012       -1.0755160476
 C          1.9959629958        0.3605666984       -0.6259268027
 C          2.9599184710       -0.2419285280       -1.6667989537
 C          4.3711005311       -0.1737803686       -1.1553589013
 C          5.1174566381        0.9846737033       -1.2954014190
 C          6.4056628605        1.0644102354       -0.7893115218
 C          6.9733258921       -0.0156759978       -0.1292941653
 O          8.2103239581       -0.0493650867        0.4033501491
 C          9.0341529029        1.0883692188        0.2967393189
 C          6.2166131188       -1.2102128133        0.0159164449
 O          6.8451593720       -2.2140993010        0.6616473548
 C          6.1857339763       -3.4470963375        0.8211528222
 C          4.9293580957       -1.2647892083       -0.4940567607
 C         -0.0762469667       -0.9393861522       -0.9313971038
 C         -5.0688329336        2.9396657067        1.6850148877
 C         -5.2268899363        2.1646561539        2.9184710921
 C         -4.1788675288        4.1007359404        1.5895038928
 H         -4.0879410655        0.6052056663       -1.6546410845
 H         -6.2117023800        0.2443908397       -2.5480082462
 H         -6.6547116135       -1.3192558418       -3.2744689174
 H         -4.9565808802       -0.7875570754       -3.2971454177
 H         -6.0114420049       -3.1126463941        2.6980552676
 H         -6.3731813020       -4.4729130105        1.6072390547
 H         -4.6823846401       -4.0984207227        2.0221389040
 H         -3.9521406991       -1.9155762438        2.5792558177
 H         -2.5060079414        0.0300198562        2.2802142883
 H         -3.1417954653        2.3929700701       -1.6700554520
 H         -1.7073283297        3.2368277306       -1.1031450748
 H         -1.7265619475        0.4427249981       -2.3435367993
 H         -1.2867868736        1.9502169878       -3.1735939539
 H         -0.7035257601        2.8448163208        0.7433834345
 H          0.7175581994        2.2287172095       -1.7935260022
 H          2.0796423897       -0.1910942076        0.3129429511
 H          2.2813616616        1.3971771679       -0.4370399307
 H          2.8694142749        0.3245017843       -2.5953584680
 H          2.6811747723       -1.2773734351       -1.8654414850
 H          4.7021735612        1.8362581473       -1.8126971479
 H          6.9637225686        1.9771574081       -0.9186137768
 H          8.5928860943        1.9514973672        0.8048185183
 H          9.2342816546        1.3422098650       -0.7486298135
 H          9.9676429467        0.8197302302        0.7875987450
 H          6.8899302561       -4.0892368968        1.3463579070
 H          5.2762871238       -3.3420140967        1.4214743836
 H          5.9370813739       -3.8971697006       -0.1450838423
 H          4.3477957966       -2.1676579920       -0.3926677298
 H         -0.2752878666       -1.3919926650       -1.9055401080
 H         -1.0230908183       -0.7899341291       -0.4103477768
 H          0.5313459777       -1.6264782715       -0.3489080239
 H         -5.6723760067        2.6659659103        0.8348200773
 H         -4.5855508586        2.5367748969        3.7125167231
 H         -4.9908639195        1.1113621151        2.7350486850
 H         -6.2686607076        2.1852501067        3.2557894194
 H         -3.2614024321        3.9321637407        2.1541815511
 H         -3.9418390985        4.3442218845        0.5566798940
 H         -4.6566648817        4.9833619063        2.0328445901
 H         -0.4672609038        1.9711497422        2.8353970579
