25
 energy: 0.000000000000 xtb: 6.6.1 (8d0f1dd)
C            3.23720163006194        1.16630919979326        0.08434469647475
N            2.29877817382611        0.07527477071623        0.03981603040599
C            2.58028210190900       -1.21425402444508        0.03006176031096
N            1.43813958087363       -1.93419271955128        0.00098261760884
C            0.39035688448383       -1.05887472636071       -0.00790371836672
C            0.93510056364412        0.21347819449412        0.01709077491437
C            0.09450143893243        1.40504303904423       -0.00410947031874
O            0.49712751527797        2.54126714362870       -0.00342325688240
N           -1.25076640035757        1.06271879480407       -0.03085478223738
C           -2.21907211982101        2.15522099834493       -0.05001256985998
C           -1.81739487048744       -0.20012725993278       -0.04692818574614
O           -2.99983886758376       -0.37846417018721       -0.07008878229737
N           -0.92618586207120       -1.30210215599479       -0.03682761578324
C           -1.46982264913417       -2.64643102187190       -0.06029820460571
H            3.71247264356769        1.21471455160235        1.06488849150277
H            4.00791497605742        1.03430808813993       -0.67357694370751
H            2.69910007168542        2.09770118228144       -0.09130154882931
H            3.56654120610678       -1.63682992603973        0.04233140067262
H           -1.67107961066214        3.09322851271934       -0.02552706933167
H           -2.82428953597071        2.09428624779827       -0.95318082946668
H           -2.87644029173232        2.07745725625962        0.81450067533302
H           -1.17061996399332       -3.19584890659852        0.83242232437030
H           -1.14560257411436       -3.17511610292205       -0.95688275822323
H           -2.55549792440841       -2.55659984320617       -0.07459039797972
H            1.38130855184625       -2.94313852034425       -0.01389874181052
25
 energy: -1.966506064523 xtb: 6.6.1 (8d0f1dd)
C            3.23439380065636        1.17075365699450        0.08566674127479
N            2.31613862568724        0.08138755911926        0.03755296614635
C            2.65617316503209       -1.24229955030096        0.03129124435487
N            1.45683508601041       -1.94601149623098        0.00142309342213
C            0.40453884683223       -1.06734511616867       -0.00837813708133
C            0.93292903218107        0.21045883281648        0.01509778043921
C            0.09512863392192        1.38806174964926       -0.00476113921985
O            0.48966899513548        2.55436786454576       -0.00337510404604
N           -1.27011717152525        1.05293130178271       -0.03112178784710
C           -2.23163251479000        2.15351667802071       -0.04978373272014
C           -1.83157000319864       -0.19814627245393       -0.04775815965383
O           -3.02944410112409       -0.37737512254585       -0.07115366258884
N           -0.93764085916936       -1.30119692900488       -0.03736467745423
C           -1.49831393470060       -2.63501760204208       -0.06078199996492
H            3.70779489705434        1.21088007962581        1.06918066196764
H            3.99924229428074        1.02877810337682       -0.67777273521655
H            2.68328528431702        2.09219553957174       -0.09144962520040
H            3.73247472189879       -1.62537146577167        0.04756243895424
H           -1.67419924593786        3.08766408134005       -0.02519707950660
H           -2.84062236080115        2.10470246744505       -0.95267576377809
H           -2.89280275516873        2.08779382506628        0.81434761628218
H           -1.20304651867769       -3.18901182349244        0.83162019970162
H           -1.17783147402638       -3.16856288037606       -0.95705919326793
H           -2.58445641760637       -2.53579971928972       -0.07519723823163
H            1.37528864165465       -2.94832515950517       -0.01287881061824
25
 energy: 7.351598627915 xtb: 6.6.1 (8d0f1dd)
C            3.22816681878973        1.16885556025538        0.08623367037405
N            2.32520376895388        0.07664271300483        0.03313678964877
C            2.72938580692925       -1.26746824367934        0.03298790025776
N            1.48160957888256       -1.95565309862047        0.00267221168072
C            0.42166000730128       -1.08189502888878       -0.00876900376670
C            0.93021124474239        0.20162844561011        0.01263447667980
C            0.09662928832330        1.36540836875791       -0.00525519018293
O            0.47172837587227        2.54642413352346       -0.00329495100842
N           -1.28818898564440        1.04647186100192       -0.03133764059521
C           -2.24288430362716        2.15479650785501       -0.04942600080937
C           -1.83527808917752       -0.19647003585345       -0.04842197515886
O           -3.03809445774424       -0.38006638074170       -0.07235290543321
N           -0.94139816550627       -1.30076126341887       -0.03777223897839
C           -1.53138059528352       -2.62166304451698       -0.06141348059938
H            3.70301454252700        1.20923578287995        1.07033043410642
H            3.99151754010732        1.02830621525524       -0.68001467733057
H            2.66972513983867        2.08502289729511       -0.09014615807543
H            3.90322949753914       -1.58327427402888        0.05360199835798
H           -1.67858217925939        3.08572132429698       -0.02466387500628
H           -2.85652377834983        2.11533011269177       -0.95105064784868
H           -2.90850983007422        2.09818067236189        0.81336456490064
H           -1.25051848888302       -3.18431985490077        0.83091821194202
H           -1.22487008655959       -3.16414648354283       -0.95794412776254
H           -2.61748029171117       -2.50249263542145       -0.07595550030725
H            1.37384230994972       -2.95478564900404       -0.01102798893766
25
 energy: 14.089399609003 xtb: 6.6.1 (8d0f1dd)
C            3.22577255572350        1.16825661341587        0.08602973518401
N            2.32834242434415        0.07100263976136        0.03003891391660
C            2.75843775720928       -1.27655810257074        0.03390955759518
N            1.49408412845935       -1.95979732496708        0.00401355871437
C            0.42970585183323       -1.09167091794795       -0.00853612654742
C            0.93114253841798        0.19609735912040        0.01164843310045
C            0.09917119133473        1.35842108917148       -0.00528355135953
O            0.46293443617530        2.54042103126896       -0.00307675705940
N           -1.29363490870707        1.04680033158159       -0.03145925730275
C           -2.24774340462436        2.15511521730098       -0.04930625774254
C           -1.83362059913585       -0.19699986819147       -0.04877088161686
O           -3.03605394041008       -0.38433428846360       -0.07328182282545
N           -0.93945867962455       -1.30259932815820       -0.03770045773227
C           -1.54904652365989       -2.61625415431042       -0.06169874945736
H            3.70020525816747        1.21077234470812        1.07041764919138
H            3.98972725400182        1.03376442818315       -0.68072004667053
H            2.66421384937138        2.08319955124857       -0.08901271100666
H            3.98366645124779       -1.56149935663293        0.05544039037688
H           -1.68335549067875        3.08547617098652       -0.02440534576539
H           -2.86279383056911        2.11658650464817       -0.95030939060595
H           -2.91462471650708        2.09918401326923        0.81288278624686
H           -1.28034104056582       -3.18376656991232        0.83098471308891
H           -1.25415463161555       -3.16362095096909       -0.95884742584085
H           -2.63421430758306       -2.48013237574513       -0.07641144357465
H            1.37385304533142       -2.95883545462350       -0.00951161615974
25
 energy: 16.360646428590 xtb: 6.6.1 (8d0f1dd)
C            3.22518070840711        1.16768462703056        0.08593480791801
N            2.32828022892006        0.06853623698816        0.02860518078967
C            2.76123461767950       -1.27766513393524        0.03439992094362
N            1.49472594474267       -1.95978819171224        0.00449597605636
C            0.42975293253902       -1.09370529644840       -0.00836867812436
C            0.93161180624849        0.19523704302539        0.01140904263649
C            0.10069112194541        1.35958633953236       -0.00535545089833
O            0.46074083480318        2.53994763787099       -0.00286219439689
N           -1.29382688778631        1.04849805591854       -0.03151688922711
C           -2.24876326347020        2.15519177469318       -0.04931269354920
C           -1.83338881589358       -0.19670191790096       -0.04882352515185
O           -3.03521127250913       -0.38416837130990       -0.07353543780926
N           -0.93883502281872       -1.30318187695216       -0.03752822012021
C           -1.55195683978332       -2.61597380723392       -0.06167943630608
H            3.69859856149071        1.21043468754169        1.07059261885203
H            3.98924713849035        1.03519559641133       -0.68073981013809
H            2.66320124950270        2.08274457616803       -0.08880204854886
H            4.00706413868955       -1.55963902024995        0.05551681473613
H           -1.68563599666156        3.08597962961142       -0.02440517266123
H           -2.86382387178801        2.11566040100392       -0.95027000363385
H           -2.91557547673475        2.09819478158551        0.81288734788254
H           -1.28563982077072       -3.18367367898951        0.83093161729721
H           -1.25929398277565       -3.16346470387791       -0.95883493496417
H           -2.63647439142757       -2.47699152860224       -0.07645670952795
H            1.37031102689703       -2.95890925799667       -0.00924822590736
25
 energy: 18.487175370490 xtb: 6.6.1 (8d0f1dd)
C            3.22471152977894        1.16696286898740        0.08588061835107
N            2.32746502831665        0.06673636027671        0.02707386110538
C            2.75805279775158       -1.27673988528847        0.03531901973780
N            1.49273940095547       -1.95869453688764        0.00484531224098
C            0.42769580985855       -1.09375810862160       -0.00830199754729
C            0.93168246569033        0.19557805118859        0.01126182577369
C            0.10198851833344        1.36238820229846       -0.00551098026377
O            0.45901544647010        2.54121876549059       -0.00259146154974
N           -1.29334906029998        1.04983198566917       -0.03158558317018
C           -2.24912740028980        2.15505261622691       -0.04932851722015
C           -1.83409446405160       -0.19631146408746       -0.04881916251836
O           -3.03526555616728       -0.38322594606705       -0.07360143470947
N           -0.93869028216212       -1.30329611737244       -0.03733749504405
C           -1.55208161612963       -2.61656342103993       -0.06160907930254
H            3.69688418522759        1.20916842102786        1.07082725724561
H            3.98875953912189        1.03496704598438       -0.68047980790570
H            2.66290568638128        2.08230749168817       -0.08895128766821
H            4.02656992186844       -1.56348135449168        0.05527254448049
H           -1.68735382285313        3.08651410716973       -0.02442170853995
H           -2.86422328300504        2.11493601872493       -0.95026855391685
H           -2.91588071527068        2.09742395845282        0.81292756467918
H           -1.28584909550761       -3.18350527499109        0.83093770546329
H           -1.25945775750175       -3.16318469485310       -0.95876814434065
H           -2.63619230672623       -2.47752000040449       -0.07641001560334
H            1.36530969814678       -2.95777648690874       -0.00932658362993
25
 energy: 19.609540232820 xtb: 6.6.1 (8d0f1dd)
C            3.22454102079761        1.16680027721976        0.08588173344827
N            2.32684589122635        0.06682932433087        0.02637173099016
C            2.75337757110566       -1.27506436343684        0.03638184372650
N            1.49087327154147       -1.95788950579007        0.00487492523983
C            0.42580051496625       -1.09250281996940       -0.00842550492788
C            0.93116714762494        0.19645724655119        0.01124833227155
C            0.10203248370532        1.36373989002646       -0.00562506150721
O            0.45855440087317        2.54268137991986       -0.00250511900415
N           -1.29332652860110        1.04961716457686       -0.03162644893586
C           -2.24903809251511        2.15495537333896       -0.04933237555582
C           -1.83524225780073       -0.19610683841570       -0.04878824757671
O           -3.03622200246526       -0.38276458197870       -0.07348151325484
N           -0.93920578375273       -1.30298031806703       -0.03728968132417
C           -1.55109523072495       -2.61701602628144       -0.06157715593663
H            3.69626436028234        1.20838752613158        1.07093418285549
H            3.98866635366876        1.03396465714053       -0.68016065302688
H            2.66305923580365        2.08221392958457       -0.08922939029511
H            4.03563306858449       -1.56906131584704        0.05482503434126
H           -1.68741382457484        3.08663803274433       -0.02441175731706
H           -2.86418233132686        2.11517361447821       -0.95028619604834
H           -2.91581296903707        2.09764219480034        0.81296218992679
H           -1.28369835006330       -3.18348114998442        0.83098157825253
H           -1.25737092516856       -3.16309515523767       -0.95877422172216
H           -2.63534347417012       -2.47926364063714       -0.07635344916455
H            1.36335111795688       -2.95684629302604       -0.00956087930774
25
 energy: 20.141787469147 xtb: 6.6.1 (8d0f1dd)
C            3.22452554592848        1.16702012519913        0.08590491514498
N            2.32671068799317        0.06766955853625        0.02630059019521
C            2.75043077827312       -1.27395093482305        0.03749095806011
N            1.49019619649471       -1.95776165391762        0.00469491620117
C            0.42497279903911       -1.09150210406804       -0.00866783409822
C            0.93052242089714        0.19704759107937        0.01121943494677
C            0.10141455927072        1.36360591848432       -0.00570882280224
O            0.45887756099758        2.54323404921776       -0.00260207898118
N           -1.29381410011457        1.04900341924954       -0.03164998710764
C           -2.24905795453256        2.15510626737421       -0.04931543622801
C           -1.83610750584618       -0.19591292007345       -0.04877024653805
O           -3.03715781967210       -0.38274922734826       -0.07332685643325
N           -0.93994146992376       -1.30269776006921       -0.03735975415812
C           -1.55062362356788       -2.61706684603913       -0.06158614536216
H            3.69634254726955        1.20836651515693        1.07095955285018
H            3.98879301331746        1.03341356050415       -0.67997846972856
H            2.66313367655964        2.08233393248264       -0.08938937867841
H            4.03964451528319       -1.57306417375799        0.05432600787549
H           -1.68690158724897        3.08659991944165       -0.02438172890149
H           -2.86417973918313        2.11574909433706       -0.95029573156724
H           -2.91581013075263        2.09820586896570        0.81301037115053
H           -1.28237132360163       -3.18350439050966        0.83099353749243
H           -1.25612980422833       -3.16313313744838       -0.95879247984625
H           -2.63511589432177       -2.48032572278000       -0.07632051302642
H            1.36386131960584       -2.95665834702192       -0.00972092431235
25
 energy: 20.273792119788 xtb: 6.6.1 (8d0f1dd)
C            3.22456482082934        1.16721897623799        0.08592486230149
N            2.32682489833415        0.06821603098510        0.02652594883759
C            2.74971100982728       -1.27372939409804        0.03832478341394
N            1.49031256290573       -1.95795181095371        0.00446405107032
C            0.42500659073080       -1.09128536086781       -0.00889270035696
C            0.93016259584893        0.19714142224140        0.01113594204587
C            0.10086353533600        1.36308064210708       -0.00575837688773
O            0.45930995516819        2.54304038503369       -0.00272873084012
N           -1.29423815370486        1.04880334166374       -0.03165644499555
C           -2.24920732739592        2.15534765818230       -0.04929225182156
C           -1.83634626444324       -0.19575269100431       -0.04877193094281
O           -3.03749227978204       -0.38285685070457       -0.07323856243454
N           -0.94039675994525       -1.30263181604751       -0.03746377305565
C           -1.55069083865015       -2.61694583343754       -0.06160914741580
H            3.69660118127530        1.20864694928020        1.07094687700294
H            3.98889216101908        1.03340958887834       -0.67997869063222
H            2.66310280054176        2.08244688973272       -0.08940089915903
H            4.04067683428022       -1.57430580264457        0.05394125240944
H           -1.68661095340642        3.08658703140501       -0.02435898930234
H           -2.86426979761053        2.11608466797750       -0.95028280135452
H           -2.91589589536299        2.09853483065707        0.81304826253780
H           -1.28224671379982       -3.18348653406895        0.83097827738866
H           -1.25605693970400       -3.16317870819680       -0.95878957753220
H           -2.63528335355583       -2.48051649579318       -0.07631235853061
H            1.36492099920051       -2.95688851439315       -0.00972112559912
