25
 energy: 0.000000000000 xtb: 6.6.1 (8d0f1dd)
C            3.23720163006194        1.16630919979326        0.08434469647475
N            2.29877817382611        0.07527477071623        0.03981603040599
C            2.58028210190900       -1.21425402444508        0.03006176031096
N            1.43813958087363       -1.93419271955128        0.00098261760884
C            0.39035688448383       -1.05887472636071       -0.00790371836672
C            0.93510056364412        0.21347819449412        0.01709077491437
C            0.09450143893243        1.40504303904423       -0.00410947031874
O            0.49712751527797        2.54126714362870       -0.00342325688240
N           -1.25076640035757        1.06271879480407       -0.03085478223738
C           -2.21907211982101        2.15522099834493       -0.05001256985998
C           -1.81739487048744       -0.20012725993278       -0.04692818574614
O           -2.99983886758376       -0.37846417018721       -0.07008878229737
N           -0.92618586207120       -1.30210215599479       -0.03682761578324
C           -1.46982264913417       -2.64643102187190       -0.06029820460571
H            3.71247264356769        1.21471455160235        1.06488849150277
H            4.00791497605742        1.03430808813993       -0.67357694370751
H            2.69910007168542        2.09770118228144       -0.09130154882931
H            3.56654120610678       -1.63682992603973        0.04233140067262
H           -1.67107961066214        3.09322851271934       -0.02552706933167
H           -2.82428953597071        2.09428624779827       -0.95318082946668
H           -2.87644029173232        2.07745725625962        0.81450067533302
H           -1.17061996399332       -3.19584890659852        0.83242232437030
H           -1.14560257411436       -3.17511610292205       -0.95688275822323
H           -2.55549792440841       -2.55659984320617       -0.07459039797972
H            1.38130855184625       -2.94313852034425       -0.01389874181052
25
 energy: -2.998129756785 xtb: 6.6.1 (8d0f1dd)
C            3.23607238218611        1.17217791116386        0.08585448920232
N            2.31559947241406        0.08367908283644        0.03754424748692
C            2.64828884969251       -1.24053022426407        0.03113328437425
N            1.45364450697591       -1.94542892324580        0.00135564933818
C            0.40421417106598       -1.06620067627955       -0.00839847840173
C            0.93315064890374        0.21193213951719        0.01505158628340
C            0.09640381476730        1.38877220838705       -0.00486939323466
O            0.49114939436506        2.55510847887885       -0.00355216661233
N           -1.26850297303014        1.05220026757913       -0.03112586974220
C           -2.23006563980501        2.15213507162513       -0.04976860632833
C           -1.83004425916989       -0.19890640612034       -0.04771977596363
O           -3.02778530452080       -0.37874486072313       -0.07106569219918
N           -0.93651633015917       -1.30142760785729       -0.03734357837832
C           -1.49522170896388       -2.63585008908406       -0.06071769006306
H            3.71005128137307        1.21316966734764        1.06926058340833
H            4.00127184474576        1.03136849459307       -0.67769268155201
H            2.68475936722458        2.09361678698865       -0.09105803932394
H            3.70781831010695       -1.62962326247760        0.04691622270678
H           -1.67201464862587        3.08583027028664       -0.02518941826841
H           -2.83875267748777        2.10306587596448       -0.95279351092192
H           -2.89091901105804        2.08617847602816        0.81453016261075
H           -1.19958678198655       -3.18971882084274        0.83170867861771
H           -1.17438603052821       -3.16927229766924       -0.95700838672650
H           -2.58120192004470       -2.53648503756456       -0.07511911023777
H            1.37478790949524       -2.94801792289587       -0.01289860992736
25
 energy: 2.854037868270 xtb: 6.6.1 (8d0f1dd)
C            3.23198459615443        1.17240942242798        0.08661283609047
N            2.32483221496391        0.08195651625291        0.03317834847717
C            2.71131161147749       -1.26245191839424        0.03263782867576
N            1.47513513135224       -1.95398414833623        0.00253136495591
C            0.42089210900405       -1.07927217375357       -0.00887593142799
C            0.93118836926655        0.20475779488999        0.01246041612617
C            0.09934927687084        1.36687373332501       -0.00559307078336
O            0.47535132948579        2.54775611535020       -0.00379591991692
N           -1.28440049399850        1.04441867225733       -0.03137423556211
C           -2.23914361726530        2.15148810861224       -0.04936765042044
C           -1.83196995946260       -0.19858785435001       -0.04837095259266
O           -3.03436745006247       -0.38334964517830       -0.07215473798437
N           -0.93891036002756       -1.30157383755890       -0.03776105311651
C           -1.52476531493716       -2.62357499354760       -0.06127653775476
H            3.70800656041025        1.21416769984774        1.07038127045802
H            3.99589349335486        1.03439599791781       -0.67990089027078
H            2.67265543576873        2.08841586647072       -0.08904238278802
H            3.84529610545563       -1.59361360674002        0.05224210095793
H           -1.67332805695319        3.08137543595244       -0.02461764701506
H           -2.85218713883048        2.11172280407619       -0.95121592885783
H           -2.90408419482077        2.09458527264920        0.81376040061727
H           -1.24334209849722       -3.18591796607921        0.83115703569793
H           -1.21771543503419       -3.16577879605098       -0.95787030726164
H           -2.61048183932086       -2.50342573772476       -0.07578622379547
H            1.37501439358177       -2.95376416014393       -0.01092423636143
25
 energy: 6.419392250068 xtb: 6.6.1 (8d0f1dd)
C            3.23031004799546        1.17260319208801        0.08648831115636
N            2.32752032944254        0.07796895828223        0.03020623533334
C            2.73336806731456       -1.26923626144115        0.03340153939427
N            1.48621725613832       -1.95742821363180        0.00377844066824
C            0.42863492737759       -1.08807540604693       -0.00874302808429
C            0.93226637068409        0.20003374643299        0.01136261007337
C            0.10244723192453        1.36047741025289       -0.00579914394129
O            0.46822744543647        2.54221336489276       -0.00384569484421
N           -1.28835887999044        1.04400481269013       -0.03151993686082
C           -2.24217309978186        2.15105253400140       -0.04921490609087
C           -1.82905938828066       -0.19979696836316       -0.04868900251596
O           -3.03094092208312       -0.38832883398777       -0.07296755470504
N           -0.93593218043000       -1.30380944399083       -0.03770590111065
C           -1.53944069680994       -2.61916905779503       -0.06150158229172
H            3.70654905186472        1.21630370618797        1.07025020042694
H            3.99489938514156        1.04099626371768       -0.68055871455642
H            2.66823258803452        2.08766600605470       -0.08732905883345
H            3.89887878580285       -1.57331357223846        0.05367538453596
H           -1.67566311945301        3.08006875369922       -0.02433742265145
H           -2.85635192302487        2.11217005788401       -0.95053575107224
H           -2.90802036477927        2.09476313103069        0.81347871908477
H           -1.26955116861447       -3.18613036916735        0.83127625868273
H           -1.24341438404259       -3.16606211947825       -0.95866412789258
H           -2.62417077609216       -2.48247426834307       -0.07616391208511
H            1.37774008416138       -2.95746882055889       -0.00930806567259
25
 energy: 7.093499097931 xtb: 6.6.1 (8d0f1dd)
C            3.22992008265289        1.17240244863339        0.08640172242061
N            2.32774970217203        0.07605372934282        0.02874902137894
C            2.73532390310343       -1.26973680022747        0.03377534633728
N            1.48815053339334       -1.95743440047515        0.00432513271979
C            0.42967107492526       -1.09034493339074       -0.00859089246736
C            0.93310237113311        0.19901180062698        0.01100261500825
C            0.10437562558929        1.36110558632893       -0.00591896961654
O            0.46687584680984        2.54150548751403       -0.00373034804005
N           -1.28793019758098        1.04508236370989       -0.03157765613459
C           -2.24248084018217        2.15066592570537       -0.04920079543471
C           -1.82774435709811       -0.19994569769772       -0.04875030124896
O           -3.02906562249950       -0.38886487152402       -0.07324591792087
N           -0.93431841095504       -1.30481961880808       -0.03752340649961
C           -1.54211799497088       -2.61893592773706       -0.06147186855147
H            3.70546596606231        1.21620250172014        1.07032436753927
H            3.99467757839623        1.04321315553817       -0.68065127486595
H            2.66732531912606        2.08754043662968       -0.08675060160071
H            3.90841856305704       -1.56919150057991        0.05355358072448
H           -1.67713745438648        3.08009991342996       -0.02430675339406
H           -2.85666434353036        2.11088081011327       -0.95046572994786
H           -2.90823426732279        2.09337413087722        0.81350344500796
H           -1.27530884442984       -3.18650925537492        0.83128679973807
H           -1.24895340660966       -3.16639300020477       -0.95868836353580
H           -2.62616433773148       -2.47816048867380       -0.07622378251888
H            1.37727817881269       -2.95777319330422       -0.00879147294995
25
 energy: 7.279383303337 xtb: 6.6.1 (8d0f1dd)
C            3.22977062489088        1.17208817644982        0.08638130094215
N            2.32773547365051        0.07499307895498        0.02744457689886
C            2.73427684623495       -1.26934904979427        0.03426126372402
N            1.48842741691756       -1.95681181078809        0.00467026121902
C            0.42946428031257       -1.09088492163322       -0.00853789324855
C            0.93353733569057        0.19895871251161        0.01069713145800
C            0.10583447227164        1.36228488146998       -0.00607019090576
O            0.46625555380249        2.54207423513620       -0.00358995203973
N           -1.28726204374813        1.04557927960012       -0.03161637226860
C           -2.24236157835316        2.15022484068338       -0.04919089986516
C           -1.82728965100842       -0.19986015734097       -0.04875455627750
O           -3.02830724411222       -0.38857266562802       -0.07334927329237
N           -0.93344046482039       -1.30526798244527       -0.03734349381936
C           -1.54240622475183       -2.61922753765893       -0.06140335572096
H            3.70460009556405        1.21544083957919        1.07050104965854
H            3.99459312804179        1.04382634893331       -0.68055057187792
H            2.66703490701887        2.08727582386523       -0.08651725908496
H            3.91077185386696       -1.56860599958664        0.05328500208255
H           -1.67797356521424        3.08017204620827       -0.02429368386536
H           -2.85660004938530        2.11002669632124       -0.95043276605456
H           -2.90809529836368        2.09246286455793        0.81354090361483
H           -1.27635943914452       -3.18668313467472        0.83131114572311
H           -1.24989896582251       -3.16648528935051       -0.95862949763735
H           -2.62608962786724       -2.47738878103501       -0.07620585548548
H            1.37599683226501       -2.95724189216360       -0.00857311773016
25
 energy: 7.304308536343 xtb: 6.6.1 (8d0f1dd)
C            3.22978950868222        1.17195354521201        0.08639836060622
N            2.32780996295747        0.07477090641057        0.02655665194063
C            2.73324670789121       -1.26903162134820        0.03473689256173
N            1.48830373402972       -1.95637849063535        0.00482647582303
C            0.42910497508297       -1.09064159986586       -0.00856889522511
C            0.93356270519671        0.19927439724633        0.01049830278559
C            0.10646695402169        1.36277930932518       -0.00616928575293
O            0.46596068937163        2.54274972334077       -0.00352078352022
N           -1.28712373927204        1.04544655618689       -0.03163361962848
C           -2.24224699676865        2.15000116277809       -0.04918348423919
C           -1.82743331901173       -0.19975574028686       -0.04873430975091
O           -3.02837282773022       -0.38844375452785       -0.07333857743784
N           -0.93327721659329       -1.30530844867142       -0.03722713917655
C           -1.54205179376460       -2.61942134895769       -0.06135478541954
H            3.70423044769563        1.21491816049174        1.07066237563420
H            3.99475155826813        1.04379482796824       -0.68036099935426
H            2.66703679315813        2.08710402905589       -0.08648108746984
H            3.91084480602646       -1.56938727981378        0.05302138380244
H           -1.67807545655421        3.08013528657801       -0.02427807641063
H           -2.85655321836125        2.10989675290644       -0.95041969520646
H           -2.90802140959749        2.09231183169863        0.81356055284945
H           -1.27577997027468       -3.18675657523002        0.83134451003716
H           -1.24929863234510       -3.16648378621438       -0.95860639089856
H           -2.62570690221848       -2.47775593322668       -0.07617144051532
H            1.37504730804601       -2.95674330824870       -0.00852303988731
25
 energy: 7.325188151747 xtb: 6.6.1 (8d0f1dd)
C            3.22989358264095        1.17193207914863        0.08644565547285
N            2.32806848714151        0.07483678810193        0.02537253672747
C            2.73229025548118       -1.26878508915287        0.03556540100616
N            1.48821495175108       -1.95603542997824        0.00495852884447
C            0.42875305978196       -1.09014575043265       -0.00867525703684
C            0.93341619639150        0.19977606238380        0.01023957488595
C            0.10694122656318        1.36294941995073       -0.00629773957502
O            0.46567428988817        2.54345135418345       -0.00350083377321
N           -1.28736452618476        1.04504237950242       -0.03165603342344
C           -2.24220406748462        2.14990851510435       -0.04917111258561
C           -1.82786354656126       -0.19958805464558       -0.04869286617022
O           -3.02874971282445       -0.38859864925830       -0.07326523249151
N           -0.93338191018016       -1.30525509218627       -0.03707812543204
C           -1.54158169820313       -2.61955424873774       -0.06129588423960
H            3.70392935410881        1.21449589617866        1.07091310460268
H            3.99519326192623        1.04380015752731       -0.68001486759485
H            2.66710528866577        2.08698706099689       -0.08647928476814
H            3.91077271790269       -1.57084275756236        0.05254880040139
H           -1.67784995855326        3.08001845886623       -0.02424865525004
H           -2.85656592394681        2.11011297893252       -0.95041277106187
H           -2.90801868530279        2.09250943905456        0.81359088100366
H           -1.27484635540635       -3.18686388686531        0.83138904656118
H           -1.24836705415026       -3.16648282689688       -0.95859503705461
H           -2.62533055963394       -2.47839541524068       -0.07611470935256
H            1.37408599412494       -2.95624478680261       -0.00849122354896
