  25
        -42.15682180
 C          3.1006101665        0.4982355923        0.0435101167
 N          2.3768060955       -0.7694079127        0.0060275679
 C          3.1588982923       -1.9163238178       -0.0108753487
 N          2.7987588832       -3.1147131704       -0.0395490453
 C         -0.0515548082       -0.1117661573       -0.0005212140
 C          1.0624251094       -0.8645445206       -0.0014206647
 C         -0.2231478005        1.3750687662       -0.0103576408
 O          0.6307742281        2.2307709329       -0.0190693533
 N         -1.5791991889        1.5746675823       -0.0047940424
 C         -2.2447344499        2.8507656941       -0.0090683632
 C         -2.2786698318        0.3711593302        0.0058365031
 O         -3.4708210991        0.2354042170        0.0131721594
 N         -1.3298478212       -0.6342456566        0.0069766942
 C         -1.6682543651       -2.0269523529        0.0162922704
 H          3.6982947326        0.5514467517        0.9551942369
 H          3.7607708308        0.5663574838       -0.8226562707
 H          2.4065288189        1.3386081538        0.0257350951
 H          4.2282087386       -1.7155176589        0.0033197005
 H         -1.4949893985        3.6410330761       -0.0017475116
 H         -2.8726706353        2.9367881281       -0.8992957332
 H         -2.8876407554        2.9331562559        0.8706357052
 H         -1.2610647858       -2.5126513439        0.9058220133
 H         -1.2717871820       -2.5213936192       -0.8733133849
 H         -2.7554858434       -2.1086536432        0.0230759017
 H          1.8394814329       -3.4419416362       -0.0556124542
