25
 energy: -42.153341573990 gnorm: 0.002739190532 xtb: 6.6.1 (8d0f1dd)
C            3.17257059563302        1.08462767405412       -0.00776890367073
N            2.03375716454426        0.21494192455996       -0.00557989212743
C            2.03920116935488       -1.14949625210240       -0.00850207792046
N            0.84042623644547       -1.66271868369179        0.00548113134911
C           -0.03318968709708       -0.62362986188926        0.01905219979095
C            0.73344903712396        0.58227515979196        0.01258499061153
C            0.07133207122654        1.86777545583002        0.00511284863448
O            0.64533932345968        2.93923036648353       -0.01740604401410
N           -1.30667963591789        1.74932141625894        0.02285007368674
C           -2.09865483913700        2.95453417450401        0.01259080402252
C           -2.04322375500639        0.52086837017812        0.03625598489558
O           -3.24448490970503        0.57518153813122        0.04722996197658
N           -1.33451042274549       -0.63498481170813        0.03345847691860
C           -0.54861351543896       -4.51457011484396       -0.02241346849947
H            3.71986061448059        0.99368649942293        0.93362365939627
H            3.84661572524623        0.82057841958328       -0.82432510693773
H            2.83708198543491        2.11547984607029       -0.12578874088119
H            2.93954281094749       -1.73478712715136       -0.02177662018914
H           -1.42617729842389        3.81236170234751        0.03225356312999
H           -2.72621175716760        2.98538495095023       -0.88246728257075
H           -2.76754594371310        2.97121924808910        0.87711117701876
H           -0.26980377524965       -5.04604799260471        0.88363420657046
H           -0.21479598139481       -5.07645610113761       -0.89105021799892
H           -1.62937923815353       -4.39836862575537       -0.05671848083789
H           -0.07547446064741       -3.52816863377592       -0.02627062444991
