  25
        -42.15806187
 C          3.2769756911        1.0630706802        0.0027452016
 N          2.1804223758        0.1810929248       -0.0012880015
 C          3.4489126039       -0.4214829798        0.0037813063
 N          1.0698735308       -2.2729325344        0.0073502996
 C          0.2848172460       -1.2731693346       -0.0024718172
 C          0.8956972429        0.0497519575       -0.0059575024
 C          0.0770338077        1.2809624290       -0.0050519900
 O          0.5873609132        2.3790046342       -0.0100708320
 N         -1.2781729994        1.0665388581        0.0027693544
 C         -2.1631583587        2.2187661150        0.0095185209
 C         -1.9069542205       -0.1752623640        0.0004478859
 O         -3.1055768512       -0.2578942587        0.0035942813
 N         -1.0942765848       -1.3040609569       -0.0058590710
 C         -1.7600661193       -2.5960949183       -0.0047417133
 H          3.4533736801        1.6269953196        0.9133564253
 H          3.4401756962        1.6435208977       -0.8989113496
 H          3.7651080940       -0.9407356369       -0.8883807171
 H          3.7382712917       -0.9237588328        0.9206962480
 H         -1.5534710857        3.1194590987        0.0068398336
 H         -2.8090389874        2.1941505198       -0.8690844484
 H         -2.7978857636        2.1918893796        0.8961152095
 H         -1.4991416382       -3.1565529462        0.8947330858
 H         -1.4796635317       -3.1674310083       -0.8911257757
 H         -2.8348953735       -2.4234504895       -0.0167016091
 H          0.6923829063       -3.2097989938        0.0145758208
