25
 energy: 0.000000000000 xtb: 6.6.1 (8d0f1dd)
C            3.23720163006194        1.16630919979326        0.08434469647475
N            2.29877817382611        0.07527477071623        0.03981603040599
C            2.58028210190900       -1.21425402444508        0.03006176031096
N            1.43813958087363       -1.93419271955128        0.00098261760884
C            0.39035688448383       -1.05887472636071       -0.00790371836672
C            0.93510056364412        0.21347819449412        0.01709077491437
C            0.09450143893243        1.40504303904423       -0.00410947031874
O            0.49712751527797        2.54126714362870       -0.00342325688240
N           -1.25076640035757        1.06271879480407       -0.03085478223738
C           -2.21907211982101        2.15522099834493       -0.05001256985998
C           -1.81739487048744       -0.20012725993278       -0.04692818574614
O           -2.99983886758376       -0.37846417018721       -0.07008878229737
N           -0.92618586207120       -1.30210215599479       -0.03682761578324
C           -1.46982264913417       -2.64643102187190       -0.06029820460571
H            3.71247264356769        1.21471455160235        1.06488849150277
H            4.00791497605742        1.03430808813993       -0.67357694370751
H            2.69910007168542        2.09770118228144       -0.09130154882931
H            3.56654120610678       -1.63682992603973        0.04233140067262
H           -1.67107961066214        3.09322851271934       -0.02552706933167
H           -2.82428953597071        2.09428624779827       -0.95318082946668
H           -2.87644029173232        2.07745725625962        0.81450067533302
H           -1.17061996399332       -3.19584890659852        0.83242232437030
H           -1.14560257411436       -3.17511610292205       -0.95688275822323
H           -2.55549792440841       -2.55659984320617       -0.07459039797972
H            1.38130855184625       -2.94313852034425       -0.01389874181052
25
 energy: -3.026669029906 xtb: 6.6.1 (8d0f1dd)
C            3.28799753781927        1.17021290181021        0.04138656505059
N            2.31644373884037        0.09751113165574        0.03197079206186
C            2.59101693836062       -1.23396426864928        0.05747834604571
N            1.41655076933599       -1.93862319213726        0.02948871833058
C            0.38792510631141       -1.05348372038616        0.00514210512699
C            0.92920667713713        0.22547277415773        0.02865968044258
C            0.08904034835839        1.39408536132340        0.00959847459362
O            0.47998786800550        2.56102945803543        0.01646417180487
N           -1.27393030077255        1.04777334531637       -0.02851706528548
C           -2.23924395358057        2.14138100108086       -0.04868160758127
C           -1.83554279498481       -0.20390289391109       -0.05615946561640
O           -3.03156944780928       -0.38822933880512       -0.09329289887045
N           -0.94378674297715       -1.30168839749937       -0.03784699172397
C           -1.48362337832453       -2.64466270521406       -0.07105192985909
H            3.81207768985594        1.16613746227817        0.99007617793891
H            4.11827200015089        1.15588748211632       -0.73192629996763
H            2.71712501044501        2.10097134433319       -0.03451814120404
H            3.56432151388076       -1.66537448276876        0.09561405402332
H           -1.68430146418588        3.07647569400476       -0.02253055231665
H           -2.84474924415715        2.08693786369369       -0.95317668294936
H           -2.89912776868673        2.06859400258815        0.81543727868603
H           -1.19120354989742       -3.19985601881915        0.82217955575710
H           -1.14852434219597       -3.17450925301068       -0.96504871301453
H           -2.56941782948593       -2.55626219146751       -0.09627305810255
H            1.34727028649292       -2.94288475755355        0.02256138277655
25
 energy: 4.639653611599 xtb: 6.6.1 (8d0f1dd)
C            3.35086777179480        1.17135266693548       -0.01210247568448
N            2.33852297898875        0.12138010512718        0.01767065483304
C            2.59320963712582       -1.24885608690723        0.10125748565895
N            1.39051034586600       -1.93280920458274        0.07310109527174
C            0.38430321615658       -1.04182002307172        0.02453169417847
C            0.92439814693569        0.24431715147812        0.03416963431201
C            0.08153188926971        1.37967250134955        0.02474552082834
O            0.44292868782760        2.56816602663037        0.04993409985646
N           -1.30411839425312        1.03257969864422       -0.02647326254015
C           -2.26738209577098        2.12580752758385       -0.04603962556084
C           -1.85207173877224       -0.20855363980928       -0.07076916932359
O           -3.05275782861579       -0.40315767647556       -0.13053898812287
N           -0.96155063000912       -1.29762590424884       -0.03876910981503
C           -1.49793394966308       -2.64077563708015       -0.08747493152299
H            3.97379534400625        1.07408404921525        0.88008547650190
H            4.22455462018394        1.31005034685543       -0.83038558585036
H            2.75284032340613        2.10655937871073        0.05368511706258
H            3.55164402424032       -1.69310220352205        0.18562918551649
H           -1.70858063050795        3.05919055322356       -0.01808589707434
H           -2.87442946462376        2.07492995750864       -0.95076914870736
H           -2.93066954810784        2.05497528468063        0.81681328068778
H           -1.22226933039056       -3.20587704229475        0.80671387756172
H           -1.15102407402860       -3.17211516055351       -0.97815405726475
H           -2.58438276658704       -2.55414665934044       -0.13028665405758
H            1.31027813346463       -2.93519740788468        0.07854567940215
25
 energy: 13.322258562114 xtb: 6.6.1 (8d0f1dd)
C            3.39953740603413        1.16988481310838       -0.04951300824184
N            2.35244028068663        0.13791107786536        0.00785425714715
C            2.58705700303084       -1.24771869258593        0.13541134439090
N            1.37703774377206       -1.92116977410100        0.11322217827556
C            0.37985089011078       -1.03027041330442        0.03732147552722
C            0.92219360857768        0.26073050919216        0.02872756266408
C            0.07009765391908        1.38045957107729        0.03561575581250
O            0.40444594669975        2.57516869088091        0.08165499654047
N           -1.32779239673637        1.02770528300893       -0.02372641347071
C           -2.29541616080885        2.11474085477003       -0.04105955013303
C           -1.86463272627428       -0.21372201025303       -0.08578283842565
O           -3.06408061482250       -0.41831893289703       -0.16471884557054
N           -0.96998374217101       -1.29402084149963       -0.04061066177487
C           -1.50534559780466       -2.63815789091224       -0.10354669887073
H            4.11227858835842        0.97958984622700        0.77516064675386
H            4.27937165750215        1.40191437782832       -0.91770756162855
H            2.81960714600657        2.11048179761499        0.12707655046803
H            3.53671656932686       -1.70270916041273        0.27476976092965
H           -1.74000617045243        3.04939983455307       -0.01121809709217
H           -2.90359374412335        2.06136598456049       -0.94533644681158
H           -2.95985044142992        2.03899521724103        0.82101927484238
H           -1.24862776802849       -3.21058683114179        0.79201818950978
H           -1.14897689526159       -3.16774825352193       -0.99186285723209
H           -2.59220729958700       -2.55054485849975       -0.16364543142425
H            1.29209373141161       -2.92435159662646        0.13591031396174
25
 energy: 17.472346060254 xtb: 6.6.1 (8d0f1dd)
C            3.42599847770572        1.16406114285768       -0.06603914201372
N            2.35803007691635        0.14514750299686        0.00261954903835
C            2.57982084190730       -1.23816156369869        0.14977359673885
N            1.37428564387359       -1.91008803394359        0.13685028908410
C            0.37592328671261       -1.02214536405712        0.03960445187685
C            0.92153425109769        0.26994954259364        0.01372828335130
C            0.06119690568770        1.38805759667980        0.03939969783104
O            0.37900521190159        2.57905682875780        0.10140712152886
N           -1.33975623515451        1.02824209507510       -0.02045860988619
C           -2.31376811910514        2.10876978377249       -0.03446409041429
C           -1.87143986390778       -0.21724284914416       -0.09452936653054
O           -3.06736242429535       -0.42647109286415       -0.18489247669644
N           -0.97165915118815       -1.29194125499142       -0.04252362433556
C           -1.50711487523793       -2.63709564560320       -0.11359499466622
H            4.16656896715019        0.92032217512232        0.70265568537673
H            4.31244696602085        1.43717048868922       -0.95831900286271
H            2.88494868708583        2.10066977798999        0.15940680863552
H            3.52328358332199       -1.69641545080377        0.33726726559607
H           -1.76526958303424        3.04675367469113       -0.00396231561429
H           -2.92399872266720        2.05145081930413       -0.93727669268640
H           -2.97702083680411        2.02721470062427        0.82822206652697
H           -1.26294396792416       -3.21242033259253        0.78283534406981
H           -1.14528536197536       -3.16440656045101       -1.00034363887009
H           -2.59379010044805       -2.54732473245154       -0.18404470977501
H            1.28858101029668       -2.91412464638120        0.17371240084433
25
 energy: 18.542324510015 xtb: 6.6.1 (8d0f1dd)
C            3.42822287003856        1.16050113987857       -0.06393997110869
N            2.35613569806069        0.14663806579828        0.00401985476746
C            2.57483733762478       -1.22624430238080        0.14522344283633
N            1.37703697246470       -1.90241743203297        0.14463636197555
C            0.37291164333070       -1.01864739973090        0.03757947552220
C            0.92001529893033        0.27223963317399        0.00044692312064
C            0.05812391469375        1.39487763861128        0.03780418909661
O            0.36979731618748        2.57992926287945        0.10751154316930
N           -1.34082115610958        1.02932699832418       -0.02030747270465
C           -2.31842657328803        2.10695288899753       -0.03532737752063
C           -1.87311433332980       -0.21897824922273       -0.09669058306956
O           -3.06617220916441       -0.42721925833309       -0.19286443710386
N           -0.97041721982718       -1.29192507431385       -0.04190866093981
C           -1.50563158733614       -2.63789944610775       -0.11370824561718
H            4.18668953110286        0.86647833204975        0.65983208944398
H            4.30779567951410        1.45355940021674       -0.98257714308926
H            2.91250734118725        2.09359286708717        0.20506654826900
H            3.51349483479028       -1.68004240282373        0.36406545187017
H           -1.77497731497138        3.04767467016575       -0.00637499618607
H           -2.92950496708094        2.04581872425308       -0.93732602289432
H           -2.98057583540278        2.02441056074952        0.82813804956176
H           -1.26557238023396       -3.21116845801774        0.78392939541273
H           -1.14109824460842       -3.16497310225662       -0.99862227185298
H           -2.59180781785705       -2.54694006563010       -0.18754477195932
H            1.29276586922026       -2.90651638916299        0.18597252514792
25
 energy: 18.433848971380 xtb: 6.6.1 (8d0f1dd)
C            3.42030354313931        1.15986685637481       -0.05641954004027
N            2.35194688596333        0.14693921953193        0.00645409547072
C            2.57315294687250       -1.21950499600522        0.13785322516345
N            1.37909390628482       -1.89944222507489        0.14350222370605
C            0.37131864118066       -1.01792924355252        0.03455118749099
C            0.91818132300414        0.27186499259368       -0.00804667119693
C            0.05830492559017        1.39765017402595        0.03448014573941
O            0.36962690779224        2.58070876429528        0.10973513075960
N           -1.33797661342607        1.02910567043205       -0.02180952747971
C           -2.31628229084438        2.10686198080443       -0.03686289753774
C           -1.87262959691117       -0.21948218567803       -0.09627928620753
O           -3.06465785843028       -0.42560025072328       -0.19239289069579
N           -0.96947956165429       -1.29261980905279       -0.04145352363026
C           -1.50415860297600       -2.63915075959632       -0.11105893631632
H            4.18283302322704        0.84603070601450        0.63979330988972
H            4.29902112091900        1.45628336583173       -0.98334758747172
H            2.91980850821872        2.08676366091375        0.22511816111506
H            3.50936097644511       -1.66874042793763        0.37430600488694
H           -1.77389969695452        3.04831573855140       -0.00892144808024
H           -2.92762434426892        2.04504254740304       -0.93852741704994
H           -2.97762000676263        2.02530596478620        0.82726503557665
H           -1.26267412671731       -3.21032890121863        0.78722165835121
H           -1.13915195336847       -3.16666129349144       -0.99519943817110
H           -2.59012030851545       -2.54880915628352       -0.18427854425014
H            1.29553692012852       -2.90344179077240        0.18135142612524
25
 energy: 18.393152350220 xtb: 6.6.1 (8d0f1dd)
C            3.41354964000323        1.16138131154691       -0.05100237039349
N            2.34871778032860        0.14836769912113        0.00725324977010
C            2.57363165363269       -1.21749247253520        0.13058371935708
N            1.37962038900963       -1.89918524837849        0.14195530332523
C            0.37095022693654       -1.01816518441011        0.03390282353826
C            0.91654494447589        0.27151158530099       -0.00969972020104
C            0.05858469049289        1.39785383913598        0.03343057281695
O            0.37159777106459        2.58118711995830        0.10836094581361
N           -1.33643491439830        1.02869934601723       -0.02372775077455
C           -2.31418424352641        2.10736550736272       -0.04038391159748
C           -1.87225466078070       -0.21942377259059       -0.09543689684389
O           -3.06457707154145       -0.42477420134644       -0.19061886888738
N           -0.96937879037911       -1.29318981365010       -0.04045875053083
C           -1.50336925712526       -2.63999016010002       -0.10798228623918
H            4.18899512267235        0.82784404276813        0.62941610910994
H            4.28780684039254        1.46321916421566       -0.98751552339809
H            2.91668055629518        2.08859883421868        0.24946510672796
H            3.50849090209395       -1.66401047058456        0.37666302098341
H           -1.77099056160360        3.04852624106081       -0.01297584819907
H           -2.92481877035609        2.04531823620401       -0.94240460967001
H           -2.97567786835041        2.02732786444573        0.82367923541494
H           -1.25974378825603       -3.20977936404893        0.79083611867426
H           -1.13841047156516       -3.16828383395957       -0.99178126676577
H           -2.58934264250319       -2.55063764689617       -0.18011580316671
H            1.29622719092370       -2.90324002068406        0.17559129728309
25
 energy: 18.314079165495 xtb: 6.6.1 (8d0f1dd)
C            3.41162237368018        1.16179109235033       -0.04900687632951
N            2.34793902685213        0.14890121648403        0.00695408593420
C            2.57496113713016       -1.21880125526424        0.12719757837802
N            1.37944565836839       -1.90019350016912        0.14114741870927
C            0.37146735310198       -1.01859799685549        0.03413495531232
C            0.91650187454753        0.27114927398453       -0.00853862075693
C            0.05866073761531        1.39701363361329        0.03386313467119
O            0.37352011462608        2.58091809382756        0.10712994881240
N           -1.33596397279498        1.02867364353001       -0.02426176393162
C           -2.31341942329653        2.10781727799608       -0.04088298012807
C           -1.87189590290377       -0.21905580484568       -0.09481784910765
O           -3.06466548620678       -0.42464372200591       -0.18857138192571
N           -0.96931706932400       -1.29321366978680       -0.04027319134242
C           -1.50332713071684       -2.63992967790230       -0.10738540173004
H            4.18437466771066        0.83193159060385        0.62904239100987
H            4.28760152700828        1.46371690337146       -0.98385768991430
H            2.91503798072318        2.08713391217665        0.24850329428227
H            3.50913373454070       -1.66474204203526        0.37688540069723
H           -1.76938838560728        3.04855393912950       -0.01315059806813
H           -2.92374872582570        2.04626083400793       -0.94307691556797
H           -2.97507047881435        2.02790417066687        0.82302461496541
H           -1.25859477154988       -3.20988351248468        0.79133847963197
H           -1.13887755765885       -3.16832186082330       -0.99150201474879
H           -2.58939517467908       -2.55098991431859       -0.17876117277519
H            1.29561256140953       -2.90436402307866        0.17189905006950
25
 energy: 18.369123518894 xtb: 6.6.1 (8d0f1dd)
C            3.41125567642051        1.16222164154513       -0.04768323667239
N            2.34735450498212        0.14977330979118        0.00651210478355
C            2.57628224165842       -1.22017528678819        0.12291811528143
N            1.37918895149782       -1.90092043898941        0.14124354526871
C            0.37195810685835       -1.01887624516846        0.03509179952519
C            0.91649826974935        0.27099653367884       -0.00635385565312
C            0.05787595840900        1.39633118187745        0.03432246750839
O            0.37434998589666        2.58055989117286        0.10546015774897
N           -1.33636016092403        1.02891848609424       -0.02472513420137
C           -2.31373053758700        2.10816724790412       -0.04133454080498
C           -1.87185110090260       -0.21879204029469       -0.09447239935217
O           -3.06493424901802       -0.42501115614045       -0.18708879967269
N           -0.96930807238630       -1.29309675524254       -0.03995280930023
C           -1.50338157212309       -2.63970288547203       -0.10714719120747
H            4.18475388050680        0.83244203222702        0.62846292351742
H            4.28807134271741        1.46544150022787       -0.98247142472973
H            2.91513295087723        2.08688754245529        0.24881402030446
H            3.50941921599748       -1.66534886124098        0.37872227732736
H           -1.76919562619949        3.04862199295272       -0.01340094050889
H           -2.92371910934461        2.04669599558267       -0.94371105122755
H           -2.97557762211935        2.02805365263788        0.82236359760834
H           -1.25826773563657       -3.20997394399126        0.79142175862350
H           -1.13926277952739       -3.16807207375710       -0.99153084052994
H           -2.58952383397813       -2.55091292588221       -0.17820135076390
H            1.29518598211152       -2.90519979300788        0.16977470327446
25
 energy: 18.463908854523 xtb: 6.6.1 (8d0f1dd)
C            3.41149153339168        1.16226100513335       -0.04704514293649
N            2.34684698834908        0.15036999428248        0.00582382701157
C            2.57752118313015       -1.22148697512784        0.11693648445143
N            1.37905796515463       -1.90142147788473        0.14156463359741
C            0.37235959123734       -1.01908370321373        0.03641532928260
C            0.91668547487800        0.27074282382593       -0.00405587608192
C            0.05683657468876        1.39588902169129        0.03437680550606
O            0.37472615458508        2.58011662993788        0.10383461149387
N           -1.33671354762642        1.02931044267112       -0.02509495288752
C           -2.31420677517109        2.10841881149658       -0.04165279798279
C           -1.87178143973910       -0.21862765792883       -0.09415748086479
O           -3.06500313432708       -0.42533048380097       -0.18618998106803
N           -0.96916526180711       -1.29290311169546       -0.03939096225119
C           -1.50339604598935       -2.63941895323890       -0.10693623475998
H            4.18522623324042        0.83137528794443        0.62772085382318
H            4.28899746714542        1.46725602810759       -0.98238233775132
H            2.91573484801185        2.08716446265096        0.25040902120756
H            3.50899997592336       -1.66515239086424        0.38244337940248
H           -1.76958963794714        3.04879828263940       -0.01368064940806
H           -2.92403687051429        2.04682034335696       -0.94410390170722
H           -2.97613982943252        2.02797517880928        0.82191523512638
H           -1.25837098023258       -3.20999468102317        0.79145534767793
H           -1.13943303333801       -3.16766491093003       -0.99150319422160
H           -2.58957734291772       -2.55059975227045       -0.17797582758996
H            1.29514457724268       -2.90578561239685        0.16830770707773
25
 energy: 18.519723667613 xtb: 6.6.1 (8d0f1dd)
C            3.41182239969739        1.16216590196051       -0.04688310061945
N            2.34630303491613        0.15070602363873        0.00534864983136
C            2.57853918588510       -1.22253239383615        0.10955280181540
N            1.37899474225164       -1.90159540353861        0.14177958220884
C            0.37252764980316       -1.01911268724882        0.03794588853856
C            0.91691272791206        0.27048610771462       -0.00195208343650
C            0.05576710053153        1.39572771552832        0.03423492695077
O            0.37466780804931        2.57973157194385        0.10298604363726
N           -1.33682706935663        1.02967590055490       -0.02520696263384
C           -2.31458689046187        2.10849364162351       -0.04168355216424
C           -1.87171377967152       -0.21862603020368       -0.09397454201237
O           -3.06492367171400       -0.42543168273053       -0.18614776471364
N           -0.96897857780853       -1.29267268449443       -0.03865668418440
C           -1.50333338703434       -2.63919584159321       -0.10681423997194
H            4.18608993732396        0.82975668737684        0.62720739479000
H            4.28999218954267        1.46802735503507       -0.98276942832546
H            2.91654568807526        2.08728139606766        0.25065669887442
H            3.50762702931748       -1.66370637271308        0.38858492276284
H           -1.77023542856109        3.04898420256284       -0.01371961023244
H           -2.92442579997397        2.04671981985017       -0.94412527858727
H           -2.97650307837551        2.02766700338168        0.82184714976900
H           -1.25867874223891       -3.21004287003859        0.79137989474581
H           -1.13927218671428       -3.16716997260920       -0.99148875185266
H           -2.58951656828463       -2.55029961157567       -0.17811668119221
H            1.29542035482568       -2.90600917448467        0.16704862214949
25
 energy: 18.495289144671 xtb: 6.6.1 (8d0f1dd)
C            3.41200808310795        1.16185497276719       -0.04749654737121
N            2.34601216171679        0.15044674995423        0.00480667536043
C            2.57934184160273       -1.22351120263308        0.10139172009799
N            1.37896606692264       -1.90164697287426        0.14152585580180
C            0.37252177941540       -1.01900490005067        0.03927549638214
C            0.91729672525299        0.27019820013202       -0.00072548151903
C            0.05520838359049        1.39576635908867        0.03417892368827
O            0.37455693250351        2.57940891061518        0.10310601755491
N           -1.33643445372095        1.02987920366692       -0.02494002166146
C           -2.31453227814185        2.10840331535489       -0.04146574104153
C           -1.87152654039450       -0.21875686598807       -0.09391134375127
O           -3.06461403940652       -0.42515251139627       -0.18686104234458
N           -0.96873799512324       -1.29246159425993       -0.03782715424760
C           -1.50319830460407       -2.63907272183615       -0.10664963550617
H            4.18566869156984        0.82908643732095        0.62745959383903
H            4.29080637383711        1.46756728014300       -0.98349954558979
H            2.91652154945224        2.08751995823050        0.25004725635035
H            3.50540288040373       -1.66146404447465        0.39634924548844
H           -1.77067417076979        3.04914562933317       -0.01353630710045
H           -2.92449171589727        2.04645387995561       -0.94384284922316
H           -2.97640664656010        2.02733041340340        0.82208495843945
H           -1.25896498215572       -3.21011238535958        0.79137219214181
H           -1.13889198624641       -3.16670728128482       -0.99136899082210
H           -2.58934632026760       -2.55006869740869       -0.17834785179501
H            1.29572263184866       -2.90607353022750        0.16590847297606
25
 energy: 18.318692659374 xtb: 6.6.1 (8d0f1dd)
C            3.41172443778077        1.16159881551788       -0.04867989754484
N            2.34619136696588        0.14956544092637        0.00457781248383
C            2.57983116078728       -1.22425980745875        0.09418188759455
N            1.37891614635993       -1.90154092486409        0.14063571010448
C            0.37234034086964       -1.01867366544625        0.03991088958127
C            0.91772091837020        0.27006976032637       -0.00116889295500
C            0.05559273532196        1.39603674676911        0.03452560767633
O            0.37435113181375        2.57935815116742        0.10473518224098
N           -1.33558843686946        1.02973094282152       -0.02416782582854
C           -2.31395735101118        2.10812862588446       -0.04094793177468
C           -1.87126927385333       -0.21903734695435       -0.09401373297781
O           -3.06417379983604       -0.42454108623180       -0.18833058816262
N           -0.96850150744463       -1.29235509225029       -0.03714224917087
C           -1.50297558305334       -2.63913267867776       -0.10654987695632
H            4.18471247019972        0.83035090785626        0.62891282904858
H            4.29071189165693        1.46522583390195       -0.98401827842572
H            2.91537993662554        2.08746789722080        0.24706419669571
H            3.50236470114524       -1.65864174885299        0.40477331297112
H           -1.77061036412647        3.04916662497092       -0.01306538853033
H           -2.92405515507469        2.04604564489273       -0.94324809471029
H           -2.97579978600009        2.02710767997197        0.82267251319699
H           -1.25898177151007       -3.21025681658500        0.79136720718794
H           -1.13835204525180       -3.16643223888136       -0.99126596941452
H           -2.58905913104146       -2.55004869188411       -0.17861002454446
H            1.29570163511181       -2.90590437196894        0.16488549836155
25
 energy: 18.224958594856 xtb: 6.6.1 (8d0f1dd)
C            3.41137949720466        1.16165517185861       -0.04889079174355
N            2.34665129672968        0.14922267645574        0.00449448152328
C            2.57976790375945       -1.22422631865660        0.09576177773456
N            1.37890891480315       -1.90158713584325        0.14021387950854
C            0.37240008775361       -1.01862720881596        0.03902629605832
C            0.91774171701242        0.27019814559308       -0.00264344885976
C            0.05638416430031        1.39609549032911        0.03481354339243
O            0.37449150037507        2.57955604923453        0.10530906049322
N           -1.33546185599359        1.02951157647083       -0.02400103833117
C           -2.31368150592521        2.10812276005437       -0.04090703903234
C           -1.87120924611211       -0.21902478567273       -0.09400785442540
O           -3.06413930500503       -0.42450322089353       -0.18819175490770
N           -0.96846849428092       -1.29246846977620       -0.03743601660504
C           -1.50293816327567       -2.63921720561736       -0.10653061844012
H            4.18390887748825        0.83183291026947        0.62940746509573
H            4.28979761946269        1.46467816376375       -0.98374810761292
H            2.91456108750046        2.08743928243833        0.24694833918548
H            3.50245567945144       -1.65915776605542        0.40412591835192
H           -1.77012876444491        3.04906760280696       -0.01303222160917
H           -2.92371202317395        2.04607096694973       -0.94323244580871
H           -2.97555803546984        2.02735269543173        0.82270997590552
H           -1.25862288411030       -3.21027485761300        0.79144320664534
H           -1.13850902738758       -3.16663810755045       -0.99126927129686
H           -2.58902553870283       -2.55013968692623       -0.17831906599420
H            1.29522116597685       -2.90591012606345        0.16498962691989
