25
 energy: 0.000000000000 xtb: 6.6.1 (8d0f1dd)
C            3.23720163006194        1.16630919979326        0.08434469647475
N            2.29877817382611        0.07527477071623        0.03981603040599
C            2.58028210190900       -1.21425402444508        0.03006176031096
N            1.43813958087363       -1.93419271955128        0.00098261760884
C            0.39035688448383       -1.05887472636071       -0.00790371836672
C            0.93510056364412        0.21347819449412        0.01709077491437
C            0.09450143893243        1.40504303904423       -0.00410947031874
O            0.49712751527797        2.54126714362870       -0.00342325688240
N           -1.25076640035757        1.06271879480407       -0.03085478223738
C           -2.21907211982101        2.15522099834493       -0.05001256985998
C           -1.81739487048744       -0.20012725993278       -0.04692818574614
O           -2.99983886758376       -0.37846417018721       -0.07008878229737
N           -0.92618586207120       -1.30210215599479       -0.03682761578324
C           -1.46982264913417       -2.64643102187190       -0.06029820460571
H            3.71247264356769        1.21471455160235        1.06488849150277
H            4.00791497605742        1.03430808813993       -0.67357694370751
H            2.69910007168542        2.09770118228144       -0.09130154882931
H            3.56654120610678       -1.63682992603973        0.04233140067262
H           -1.67107961066214        3.09322851271934       -0.02552706933167
H           -2.82428953597071        2.09428624779827       -0.95318082946668
H           -2.87644029173232        2.07745725625962        0.81450067533302
H           -1.17061996399332       -3.19584890659852        0.83242232437030
H           -1.14560257411436       -3.17511610292205       -0.95688275822323
H           -2.55549792440841       -2.55659984320617       -0.07459039797972
H            1.38130855184625       -2.94313852034425       -0.01389874181052
25
 energy: -3.627860992663 xtb: 6.6.1 (8d0f1dd)
C            3.28392380771932        1.17115273233015        0.04603848012344
N            2.31615360184729        0.09749596891803        0.03192516698446
C            2.59230114330513       -1.23389414657804        0.05443375316591
N            1.41774867267061       -1.93854517659309        0.02707572620522
C            0.38905730138319       -1.05336221932979        0.00394010691614
C            0.92978050718956        0.22554151230233        0.02715005433628
C            0.09042789289458        1.39449082316914        0.00834027957875
O            0.48164609696088        2.56150962737194        0.01467199300339
N           -1.27254206019954        1.04798438589470       -0.02866418340464
C           -2.23762490109282        2.14157533718246       -0.04873583710693
C           -1.83438041978591       -0.20358739414478       -0.05540286014370
O           -3.03051066022801       -0.38784213642900       -0.09145670094897
N           -0.94262975081282       -1.30136998305464       -0.03768099301539
C           -1.48238890012097       -2.64421788761803       -0.07019305029192
H            3.80452386099612        1.17168854568718        0.99819704400130
H            4.10411794365638        1.14327717852827       -0.72729194887676
H            2.71613031742026        2.10156751347834       -0.03969637097724
H            3.56597617933624       -1.66539172201402        0.09079812540163
H           -1.68197993493091        3.07622422495979       -0.02263940585665
H           -2.84306350166408        2.08728016405933       -0.95328352905416
H           -2.89741943392701        2.06899476350460        0.81546715704234
H           -1.18923046740556       -3.19922722972737        0.82291033743129
H           -1.14780893076255       -3.17412526678190       -0.96433670791209
H           -2.56814723983019       -2.55546206443755       -0.09465419079029
H            1.34815354331701       -2.94272894850603        0.02012145033591
25
 energy: 1.961944985639 xtb: 6.6.1 (8d0f1dd)
C            3.34265521041795        1.17259885994085       -0.00287895403128
N            2.33789572207646        0.12082053093520        0.01677831739819
C            2.59628136306813       -1.24894845813480        0.09390665493067
N            1.39307206384044       -1.93253721716391        0.06846670373280
C            0.38684077796375       -1.04141717473689        0.02216012237888
C            0.92593808830877        0.24434689030471        0.03166194886749
C            0.08452513765344        1.38060747198345        0.02248594952249
O            0.44634733929683        2.56935821897010        0.04609871167936
N           -1.30094690658226        1.03298519613033       -0.02668906961926
C           -2.26393251727075        2.12603600874667       -0.04613320305773
C           -1.84935367050390       -0.20787131366134       -0.06931948268863
O           -3.05024940762498       -0.40248671453730       -0.12707652881330
N           -0.95877288011736       -1.29680925281994       -0.03824364851828
C           -1.49513065852640       -2.63955553640536       -0.08587637266287
H            3.95808503564054        1.08658895211932        0.89719800085387
H            4.19230679960337        1.28298598534874       -0.82150647759737
H            2.75045553694740        2.10835512221604        0.04403124605013
H            3.55527089329556       -1.69373378719036        0.17558091048555
H           -1.70367729123810        3.05848723509439       -0.01811273992963
H           -2.87081935115651        2.07557336545562       -0.95098523326346
H           -2.92720227401040        2.05549821633865        0.81674203425730
H           -1.21835473176879       -3.20442339410954        0.80808319952806
H           -1.14909859615169       -3.17091533423199       -0.97684215547689
H           -2.58145926326659       -2.55187728631597       -0.12748702991762
H            1.31153824804122       -2.93463798210466        0.07499099203881
25
 energy: 8.273464997641 xtb: 6.6.1 (8d0f1dd)
C            3.38679158878037        1.17044662454380       -0.03747290404459
N            2.35133055744004        0.13588398246731        0.00515859194619
C            2.59177654853656       -1.24860148021482        0.12388644223641
N            1.38110419927488       -1.92131916572771        0.10634210976095
C            0.38386154103055       -1.02998844778723        0.03432783931262
C            0.92488528127164        0.26027388807230        0.02596719706209
C            0.07504464865922        1.38179928149925        0.03230547715042
O            0.41074782081819        2.57674262893320        0.07556494988495
N           -1.32231191737045        1.02867603265947       -0.02429000700915
C           -2.28960890633355        2.11558883308702       -0.04142866133495
C           -1.85988213333240       -0.21234106213305       -0.08358603001315
O           -3.05957476548459       -0.41683625716304       -0.15971730409078
N           -0.96541623620978       -1.29280253734781       -0.03945339062627
C           -1.50082566213291       -2.63627180952198       -0.10112859086420
H            4.08869089696557        0.99864950154997        0.80132980191017
H            4.22815948771800        1.36280306214371       -0.90492372740292
H            2.81101112929191        2.11346690431334        0.11530400145917
H            3.54223841573196       -1.70394360411890        0.25960559287112
H           -1.73264902920473        3.04926145908106       -0.01138306658150
H           -2.89755501790999        2.06268364983077       -0.94584729299170
H           -2.95404980264985        2.03994264515166        0.82061475022931
H           -1.24270555146285       -3.20834274654113        0.79421456274359
H           -1.14552616651876       -3.16577658766599       -0.98987460405173
H           -2.58747542335285       -2.54697712727830       -0.15970622867770
H            1.29415316437994       -2.92398906566090        0.13122438726897
25
 energy: 10.757611310866 xtb: 6.6.1 (8d0f1dd)
C            3.41193691830452        1.16412913056714       -0.05495670919566
N            2.35692443766387        0.14270587876010       -0.00296605460911
C            2.58547471600274       -1.23955192692214        0.13669549206042
N            1.37912688120161       -1.91008895386532        0.13013938950238
C            0.38096234970056       -1.02141161505018        0.03722243872471
C            0.92508879502264        0.26999746563776        0.01118323685695
C            0.06715634419374        1.38994740807605        0.03590685709917
O            0.38635133341949        2.58149196959993        0.09516018819358
N           -1.33333716425025        1.02975773807579       -0.02131361148126
C           -2.30737184709954        2.10984441813302       -0.03479828467354
C           -1.86549767111326       -0.21534509134405       -0.09256658831169
O           -3.06166343801990       -0.42487140263425       -0.18045398970416
N           -0.96593198778832       -1.29021342006389       -0.04079933658635
C           -1.50130511550022       -2.63463411971860       -0.11152414698422
H            4.14533736838091        0.94035357484970        0.73180031621655
H            4.24437444810997        1.38924623714295       -0.94532080232604
H            2.87361181302591        2.10601241474515        0.14889278078700
H            3.52988383650530       -1.69808759791185        0.32263894253003
H           -1.75779225003094        3.04709557776696       -0.00370676382914
H           -2.91732330116952        2.05290019305936       -0.93777093839283
H           -2.97065276944062        2.02761098633972        0.82777590710282
H           -1.25642677288528       -3.20994598064151        0.78472669806029
H           -1.13995382806903       -3.16147651974973       -0.99873929887596
H           -2.58774055450078       -2.54296683282011       -0.18121686396257
H            1.29098212627248       -2.91347092985993        0.17102503794597
25
 energy: 10.715526290925 xtb: 6.6.1 (8d0f1dd)
C            3.41748662903014        1.15891670119244       -0.05720898003840
N            2.35599775761367        0.14437470372090       -0.00670238381908
C            2.58082235970533       -1.22731265045823        0.13216804980479
N            1.38227111763952       -1.90117697723650        0.14030619789818
C            0.37854634097863       -1.01650579312411        0.03567737841877
C            0.92457455172681        0.27384246457933       -0.00410239928601
C            0.06408455366508        1.39793021253462        0.03444107948026
O            0.37587185654092        2.58370281124257        0.10340009461767
N           -1.33464212314168        1.03138248298036       -0.02083935173006
C           -2.31358754853745        2.10750530394173       -0.03373724062642
C           -1.86680739566149       -0.21676029707169       -0.09576073100591
O           -3.05984461537863       -0.42599635106253       -0.19072751967630
N           -0.96389600516741       -1.28939627730445       -0.04010785006761
C           -1.49886688132808       -2.63471451005968       -0.11346901608769
H            4.16624202829836        0.88723605404560        0.68718204510069
H            4.23071867892980        1.39663197273065       -0.96748714279929
H            2.90748610492281        2.09843135856267        0.19013966830245
H            3.51976522226564       -1.68096661531046        0.35715685737403
H           -1.77063466086278        3.04835485221970       -0.00360509744969
H           -2.92501793911079        2.04660039185748       -0.93549025126181
H           -2.97529854957798        2.02253492744468        0.82986898218310
H           -1.25983657129348       -3.20881677919211        0.78390371924596
H           -1.13365424177466       -3.16059405462369       -0.99879823185843
H           -2.58474052446128       -2.54172656256766       -0.18820159461940
H            1.29517452291509       -2.90444876686960        0.18902761404752
25
 energy: 9.905771259703 xtb: 6.6.1 (8d0f1dd)
C            3.41249358033000        1.15761642951362       -0.05272827604691
N            2.35225866031044        0.14501886505579       -0.00888937271190
C            2.57959023095028       -1.22024376184519        0.12222699775967
N            1.38440464533221       -1.89728300866841        0.14041329704819
C            0.37723848652567       -1.01491414325866        0.03317561341173
C            0.92293856516907        0.27451052750939       -0.01376533439150
C            0.06428911193685        1.40116151940453        0.03097574795665
O            0.37500810454107        2.58536322467884        0.10599015919756
N           -1.33211016681970        1.03129355069863       -0.02265578071912
C           -2.31217291770762        2.10711881860846       -0.03565291457218
C           -1.86626083556595       -0.21703109355360       -0.09591471028702
O           -3.05829807226383       -0.42444706432144       -0.19211008897379
N           -0.96277242599282       -1.28971686044763       -0.03893027669342
C           -1.49673713519404       -2.63567270028956       -0.11071114241889
H            4.16952636727395        0.85746737914377        0.66598817882661
H            4.21056547893275        1.39945758640131       -0.97059708472599
H            2.91663159745765        2.09318125590277        0.21905476195173
H            3.51505834972111       -1.66751098027314        0.37138345249739
H           -1.77105344342337        3.04914904952866       -0.00677226583148
H           -2.92409272003537        2.04490228236702       -0.93690424915305
H           -2.97279561320056        2.02280322224946        0.82881732224138
H           -1.25722320626585       -3.20764281658764        0.78752226485703
H           -1.12999350391654       -3.16200841507355       -0.99484006053580
H           -2.58230334641763       -2.54335371098154       -0.18594250537523
H            1.29802487625829       -2.90019055358986        0.18790016283567
25
 energy: 9.245922168348 xtb: 6.6.1 (8d0f1dd)
C            3.40775080769719        1.15814906016608       -0.04882388565298
N            2.34923416994673        0.14593699819043       -0.01202733028422
C            2.58060814377413       -1.21840769153475        0.11162740474144
N            1.38500868369008       -1.89660148743842        0.13850273510093
C            0.37707589584932       -1.01472483934008        0.03184002705426
C            0.92160593240442        0.27441704074598       -0.01789293427013
C            0.06489327960768        1.40150205118663        0.02944127495755
O            0.37710080746847        2.58599228083198        0.10574618847570
N           -1.33020756772177        1.03088655332683       -0.02457066210860
C           -2.30982644637414        2.10757039197184       -0.03834935264784
C           -1.86561851325801       -0.21676680086202       -0.09520951745570
O           -3.05786528130333       -0.42341140001888       -0.19051519241995
N           -0.96243133312529       -1.29011304950762       -0.03768400683954
C           -1.49556130860740       -2.63637320391774       -0.10749866106649
H            4.17017182606983        0.84168661930774        0.65464464601451
H            4.19460634911294        1.40587667456392       -0.96874613286754
H            2.91710240413374        2.09015637453683        0.24049748201002
H            3.51336727756173       -1.66075507174504        0.37918164386143
H           -1.76795686091923        3.04933152699278       -0.01009909317518
H           -2.92150605310488        2.04520867883569       -0.93963478496016
H           -2.97011647103451        2.02459604704009        0.82641965402656
H           -1.25404339811272       -3.20702498297070        0.79127412351850
H           -1.12856998185573       -3.16345587282034       -0.99116541078916
H           -2.58109499472552       -2.54518959024249       -0.18193652933992
H            1.29848730076234       -2.89945770512670        0.18201221026383
25
 energy: 8.574638079055 xtb: 6.6.1 (8d0f1dd)
C            3.40451745045826        1.15935834036436       -0.04532344695692
N            2.34665881262639        0.14699852837870       -0.01618144331342
C            2.58308741498789       -1.21943472584725        0.09801203806892
N            1.38506732740553       -1.89735364022712        0.13633875741604
C            0.37766679973452       -1.01513105007498        0.03169423973802
C            0.92076281055664        0.27393471563141       -0.01859741465976
C            0.06497132364972        1.40066878521218        0.02906508454292
O            0.38007381561707        2.58574872659705        0.10377714480995
N           -1.32913197913209        1.03077568196959       -0.02636656972565
C           -2.30794264056288        2.10848397670774       -0.04113386575098
C           -1.86497883908219       -0.21624710159048       -0.09409635442187
O           -3.05781152043565       -0.42308636634453       -0.18732859970888
N           -0.96216842284733       -1.29034548299957       -0.03613752506080
C           -1.49480230387084       -2.63667336790136       -0.10441007285208
H            4.17003945034419        0.83283259294131        0.64665396221735
H            4.18082422013568        1.41438183547598       -0.96319009711850
H            2.91661833611341        2.08636478775965        0.25690417143340
H            3.51230782182532       -1.65666313005497        0.38676540274402
H           -1.76442967463065        3.04943803802105       -0.01317409020312
H           -2.91896389384995        2.04624355422144       -0.94272607457719
H           -2.96838656871404        2.02674301135097        0.82352928438874
H           -1.25109568264861       -3.20669932716094        0.79458328342371
H           -1.12825815965439       -3.16437029791240       -0.98811442599676
H           -2.58044058633449       -2.54656273274103       -0.17765082375306
H            1.29802935624457       -2.90037674960476        0.17414133146325
25
 energy: 8.173300069070 xtb: 6.6.1 (8d0f1dd)
C            3.40446001077289        1.16049843050649       -0.04422334321943
N            2.34540096125669        0.14789516975441       -0.02018958073789
C            2.58574915907825       -1.22189085834716        0.08450642498658
N            1.38488636294974       -1.89842710649815        0.13552234794904
C            0.37854886545673       -1.01557743303573        0.03324208525517
C            0.92071166899769        0.27350596362532       -0.01616316297577
C            0.06414303295352        1.39971862229302        0.02923031653068
O            0.38153095361445        2.58515217678914        0.10097989458833
N           -1.32935650362859        1.03110249952843       -0.02755136392327
C           -2.30770570297313        2.10921144645325       -0.04349256998597
C           -1.86466665847104       -0.21588946100605       -0.09316797309059
O           -3.05795955774291       -0.42361737152469       -0.18500118989073
N           -0.96186565699557       -1.29021173806111       -0.03437133122373
C           -1.49449493368721       -2.63644075411609       -0.10236325176618
H            4.17472621739763        0.82490452987820        0.64162173659321
H            4.17140788592782        1.42356299127684       -0.96117445944189
H            2.91658750848332        2.08514434142315        0.27132784993212
H            3.51105685409305       -1.65475588056520        0.39458005620760
H           -1.76312723200823        3.04959740739902       -0.01573610849211
H           -2.91799790140473        2.04671201225364       -0.94548101681747
H           -2.96866024191924        2.02809992819844        0.82076866993142
H           -1.24996393354062       -3.20653642555585        0.79656132572734
H           -1.12845554555523       -3.16435226553917       -0.98632130667348
H           -2.58025806898612       -2.54669828760391       -0.17502929543910
H            1.29751712386694       -2.90167933535418        0.16895914212341
25
 energy: 7.827235089539 xtb: 6.6.1 (8d0f1dd)
C            3.40632266878219        1.16078118981528       -0.04480606385057
N            2.34532907321228        0.14773183722896       -0.02334868546173
C            2.58839023371783       -1.22544067129168        0.07208563416007
N            1.38475840158953       -1.89977118418380        0.13492971932754
C            0.37960543695055       -1.01606298756910        0.03559706820440
C            0.92173768161394        0.27278512165074       -0.01202970957523
C            0.06313515360013        1.39879532232527        0.02939314599004
O            0.38232935713928        2.58417996828986        0.09860582642889
N           -1.32965833646313        1.03175812537801       -0.02772198996699
C           -2.30806022379861        2.10970864386577       -0.04387117178713
C           -1.86423656278788       -0.21561564270909       -0.09225836547147
O           -3.05772853575584       -0.42419938974720       -0.18308777053677
N           -0.96127663439093       -1.28972506220197       -0.03283443967423
C           -1.49447641978186       -2.63574473945717       -0.10176985133992
H            4.17253067359435        0.82883103090248        0.64233250382258
H            4.16950194014272        1.42671743387732       -0.95558785031088
H            2.91767278981330        2.08215502444127        0.27025342030260
H            3.50934519213102       -1.65426970622105        0.40229704782007
H           -1.76321730978853        3.04989020211601       -0.01596577837394
H           -2.91801839838841        2.04714296162310       -0.94607056603380
H           -2.96944967624279        2.02827171438925        0.82000249373847
H           -1.25005938620210       -3.20671066496066        0.79661366094571
H           -1.12910400555415       -3.16320804078008       -0.98634574429960
H           -2.58034583716800       -2.54574883765776       -0.17418619446627
H            1.29718739197114       -2.90322304695168        0.16480755655549
25
 energy: 7.789666901172 xtb: 6.6.1 (8d0f1dd)
C            3.40835807056434        1.16054606404915       -0.04683949181653
N            2.34590855621122        0.14735394780344       -0.02442492806236
C            2.58919545675568       -1.22697994963145        0.06623489963684
N            1.38469572114695       -1.89993581842583        0.13538170070149
C            0.37985719888023       -1.01591235887195        0.03757693887997
C            0.92262224932920        0.27266745568542       -0.00941969101661
C            0.06246933445267        1.39882153146581        0.02932142582460
O            0.38137830959910        2.58386613763522        0.09811383497284
N           -1.32995679367364        1.03215996361063       -0.02723204474853
C           -2.30888552063823        2.10947470124821       -0.04344818300658
C           -1.86416458615179       -0.21575625472721       -0.09223303991518
O           -3.05749562586004       -0.42444444102277       -0.18398264004381
N           -0.96093188440409       -1.28925283563990       -0.03189749381536
C           -1.49451522214627       -2.63525353868827       -0.10218203850835
H            4.17471120660244        0.82887841457630        0.64396908400510
H            4.17075064645363        1.42672307407890       -0.95693478141426
H            2.91845887956051        2.08268209199788        0.26858962701640
H            3.50723649751097       -1.65349392246786        0.40843726215663
H           -1.76493092338267        3.05008639015831       -0.01546638207531
H           -2.91891451771061        2.04654173426422       -0.94564682856841
H           -2.97043650982967        2.02737299121289        0.82027578341073
H           -1.25122504461282       -3.20686925488954        0.79584336050026
H           -1.12897514785684       -3.16213410220070       -0.98697607607728
H           -2.58036653885179       -2.54471744208388       -0.17527748750446
H            1.29737085598758       -2.90339597696496        0.16525108561549
25
 energy: 7.723023787546 xtb: 6.6.1 (8d0f1dd)
C            3.41021859054890        1.15959517608855       -0.05023945452334
N            2.34681095165913        0.14615931478783       -0.02553065591085
C            2.58987623097635       -1.22864568756423        0.05818873173971
N            1.38465067094989       -1.89980628535806        0.13538536071378
C            0.37985153753212       -1.01539804362769        0.03985066970436
C            0.92397749638984        0.27253527759794       -0.00730001760786
C            0.06223654829321        1.39923837880343        0.02925285472753
O            0.38002001972980        2.58364954068820        0.09891962366936
N           -1.32950623211758        1.03248026055227       -0.02595380517035
C           -2.30939195739721        2.10884281281673       -0.04191514705160
C           -1.86388657618433       -0.21610029355906       -0.09251515252159
O           -3.05683694090657       -0.42405908212357       -0.18644304156078
N           -0.96040654374946       -1.28862540223411       -0.03072940153884
C           -1.49441522067037       -2.63474467309464       -0.10306322076288
H            4.17399038107164        0.83192006214276        0.64790283540368
H            4.17452288853455        1.42256578931665       -0.95908922550468
H            2.91867574358212        2.08354621853540        0.26133852879759
H            3.50317028073196       -1.65114355999822        0.41941419948269
H           -1.76715251901098        3.05033291199633       -0.01372010228332
H           -2.91979205235140        2.04551853706115       -0.94395060543482
H           -2.97090692349466        2.02561781409619        0.82181197368498
H           -1.25276324874936       -3.20719055895716        0.79446831778088
H           -1.12825905512176       -3.16061332860476       -0.98805179977380
H           -2.58015685927695       -2.54345411265674       -0.17736214139430
H            1.29768745696719       -2.90319246453314        0.16636457148175
25
 energy: 7.615359855998 xtb: 6.6.1 (8d0f1dd)
C            3.40961383205936        1.15910134408314       -0.05122080959508
N            2.34686959340706        0.14545201912355       -0.02603404744245
C            2.59042207836075       -1.22930354654885        0.05272423254974
N            1.38457755501473       -1.89969551208606        0.13467169491001
C            0.37974457602239       -1.01505387888610        0.04043840667234
C            0.92441240246858        0.27245050405217       -0.00757401941592
C            0.06263514290956        1.39947583653656        0.02959981024966
O            0.37987784016667        2.58366021435476        0.10018883674294
N           -1.32871325971272        1.03238309187580       -0.02523047567162
C           -2.30892592806690        2.10856736828918       -0.04119475116953
C           -1.86358770188948       -0.21627574437928       -0.09269440701829
O           -3.05640176174942       -0.42347543820640       -0.18790841289103
N           -0.96014312439093       -1.28848710354639       -0.03010232351123
C           -1.49415081293158       -2.63473597660893       -0.10314941521889
H            4.17243113148223        0.83346405283089        0.64948906618532
H            4.17537868377391        1.41961613922796       -0.95989090440126
H            2.91765008041592        2.08373023031868        0.25757987421718
H            3.50024538186404       -1.64852465132291        0.42679528760287
H           -1.76727034214651        3.05037867605956       -0.01293294260006
H           -2.91944418662235        2.04512433920525       -0.94315208800396
H           -2.97033952313670        2.02508738602919        0.82260946879794
H           -1.25285686846798       -3.20734835091676        0.79427385177963
H           -1.12754160228027       -3.16022488627957       -0.98811646069501
H           -2.57981296934090       -2.54333696035553       -0.17793963511851
H            1.29754445072660       -2.90300055067786        0.16580405919257
25
 energy: 7.535499726426 xtb: 6.6.1 (8d0f1dd)
C            3.40783022431797        1.15873800817849       -0.05116914614326
N            2.34666151869920        0.14487568624821       -0.02621190612005
C            2.59116459019774       -1.22982499322280        0.04807641705060
N            1.38445393654485       -1.89974413248877        0.13346997206967
C            0.37970260573947       -1.01485749295637        0.04003150038253
C            0.92450926296360        0.27230940499027       -0.00915140802550
C            0.06337263566352        1.39955087549252        0.03023742549576
O            0.38034387416616        2.58364176963850        0.10175692173506
N           -1.32782278179261        1.03210729899355       -0.02470229373864
C           -2.30804104055904        2.10852025692181       -0.04078443580885
C           -1.86323277106078       -0.21636284237723       -0.09278316050062
O           -3.05601731617688       -0.42289703263471       -0.18877667762242
N           -0.95993073242411       -1.28860279948265       -0.02981802711374
C           -1.49381780183063       -2.63493634268097       -0.10288033650903
H            4.17019331101961        0.83484991645405        0.65011474274675
H            4.17565017783799        1.41733940744871       -0.96047502973598
H            2.91566330697421        2.08391952920008        0.25535768967513
H            3.49744184434988       -1.64577721896956        0.43362683397485
H           -1.76635904999271        3.05034280984821       -0.01257191864094
H           -2.91855150868841        2.04504090485390       -0.94269686516269
H           -2.96932517751138        2.02524613407523        0.82312360997761
H           -1.25223549464351       -3.20744485338656        0.79459132030230
H           -1.12697504684585       -3.16036558348670       -0.98776031382037
H           -2.57942225066126       -2.54369299321381       -0.17771679191645
H            1.29695835164906       -2.90294711527135        0.16414577359559
25
 energy: 7.541325907426 xtb: 6.6.1 (8d0f1dd)
C            3.40632839591650        1.15889754264824       -0.05015121750403
N            2.34632461803598        0.14494307019682       -0.02593533590223
C            2.59191325516688       -1.23011134176377        0.04629909449352
N            1.38439536159697       -1.89999594159861        0.13250778338731
C            0.37987380339368       -1.01499464970389        0.03886407353858
C            0.92429182222288        0.27214236654083       -0.01062425044854
C            0.06369506387056        1.39937094963053        0.03066393105777
O            0.38096365210490        2.58348168349315        0.10239350924164
N           -1.32764050981791        1.03195272452974       -0.02473163968910
C           -2.30758383168503        2.10876354985836       -0.04090006224477
C           -1.86309527033792       -0.21629362812443       -0.09259309909436
O           -3.05598241750467       -0.42293046949808       -0.18809703507737
N           -0.95980923670198       -1.28883784254092       -0.03011781717006
C           -1.49365998932403       -2.63511701996535       -0.10253461733933
H            4.16952129518768        0.83503963855393        0.64946036247334
H            4.17548295839322        1.41732524528445       -0.96038146819866
H            2.91444436359037        2.08404597559226        0.25545315210069
H            3.49635084319016       -1.64468692110230        0.43718388587966
H           -1.76531963833771        3.05028964460342       -0.01283428626927
H           -2.91799774383921        2.04531171731498       -0.94281806051813
H           -2.96878815478766        2.02593307474640        0.82306310836555
H           -1.25138378686985       -3.20741000146143        0.79503814202202
H           -1.12712393838584       -3.16081643907452       -0.98741029949798
H           -2.57929374918961       -2.54411405257206       -0.17684866451645
H            1.29630750204768       -2.90316027341566        0.16208470705754
