25
 energy: 23.485310353353 xtb: 6.6.1 (8d0f1dd)
C            3.16590608409413        1.55095232749098        0.09543687495585
N            2.45035194275729        0.06273829673392        0.08612225148692
C            2.67525807458481       -1.36274922197452        0.08707600082543
N            1.46190692322669       -2.06768764915078        0.02081614556241
C            0.44810603741819       -1.17608445059317       -0.00913363687936
C            1.02455287592573        0.10176202957970        0.01878446760832
C            0.19063425473342        1.25113761004923       -0.00769021986541
O            0.55119730898432        2.42983160143422       -0.01677282207231
N           -1.20443525188884        0.96380647679227       -0.03358123144414
C           -2.10283308123444        2.10916483332123       -0.04608827151592
C           -1.78153938337720       -0.26063930951745       -0.05640848637078
O           -2.98690086014914       -0.41281218254380       -0.08914514345097
N           -0.92080700114016       -1.38101157060705       -0.04746891109537
C           -1.59447644864509       -2.66202081899030       -0.06915886102361
H            3.70983616241744        1.79565137526525        1.01221063497683
H            3.88954623537184        1.68558901507446       -0.71798565415329
H            2.33196413456630        2.25825623541732        0.01490827491006
H            3.59088896489368       -1.90396675364662        0.05168235249987
H           -1.49893417903564        3.01179180230506       -0.02679997005518
H           -2.70903947753644        2.10170882970364       -0.94847427599312
H           -2.74098464617866        2.09137350213971        0.83283833283638
H           -1.38030423311410       -3.24576632037837        0.82786798213375
H           -1.32858572989396       -3.23279337791003       -0.95996535479827
H           -2.66805560184746       -2.44161288352084       -0.09477657757926
H            1.32958366030344       -3.07559027775275        0.00551576010307
