25
 energy: 40.949921160239 xtb: 6.6.1 (8d0f1dd)
C            3.37497398705939        2.27703725738253        0.11028221837534
N            2.42150402877248       -0.30274271134189        0.08626433407883
C            2.55166625489930       -1.59287465783478        0.07470400086464
N            1.35918145761305       -2.28105040797252        0.01250474537971
C            0.38740593436847       -1.32117091133120       -0.01089100538963
C            1.05697820351398       -0.09146586256754        0.02432075934970
C            0.26115315552845        1.13613265307354       -0.01362564406797
O            0.62692195680601        2.28094905196554       -0.03098952111461
N           -1.12892859889736        0.90013811615953       -0.03759109057672
C           -1.99470619941757        2.08094589286999       -0.04027987312525
C           -1.76380518379532       -0.30700571097421       -0.06643911281034
O           -2.97343959874210       -0.36431721173269       -0.10393461437645
N           -0.97163937752242       -1.46697100586776       -0.05549183013448
C           -1.72192207868343       -2.70282677647888       -0.08081619831650
H            3.88815686860831        2.36637653842779        1.00435407191886
H            3.81115220267552        2.26732073789195       -0.83149850285472
H            2.36210098256092        2.55253761773903        0.16648666032519
H            3.48138292217257       -2.12590598157249        0.04790736384106
H           -1.35831054020533        2.95544819300482       -0.02744010184588
H           -2.60706137905203        2.10725558353881       -0.93660573508891
H           -2.61653493782839        2.09898494790603        0.84924388284589
H           -1.56187060680834       -3.29370629140433        0.82135593107470
H           -1.48455962137745       -3.28966301355630       -0.96654973857908
H           -2.77761613987754       -2.38960382587381       -0.12469614990125
H            1.24318289085321       -3.28484189305932        0.00507395827534
