25
 energy: 41.604479317932 xtb: 6.6.1 (8d0f1dd)
C            3.26481686240467        1.89944234242289        0.09359144910566
N            2.41920026999320       -0.13633223407838        0.10496598520991
C            2.61371299639413       -1.43287439711269        0.09056382344635
N            1.43051511481128       -2.14384006512916        0.02032080353749
C            0.42364675313038       -1.22228796691540       -0.00748072324066
C            1.04114046156376        0.02968532602134        0.02775759537768
C            0.20770519627138        1.22439227463894       -0.00745739830777
O            0.55196725203703        2.38728136837256       -0.02043617536219
N           -1.18218022724561        0.94593314307047       -0.03569351991223
C           -2.07820449060741        2.09918015312538       -0.04460694184123
C           -1.77801535872562       -0.27587803565375       -0.06033912547502
O           -2.98328388786181       -0.40219646706125       -0.09311006177735
N           -0.93671494843311       -1.40419765965100       -0.04976106928422
C           -1.62674981782310       -2.67214204506392       -0.07279705194253
H            3.74546198774434        1.95528697467965        1.03170827895088
H            3.90094088048145        1.84245026374650       -0.75272825708511
H            2.29199509097919        2.33027684986964        0.04360755652747
H            3.55664736413937       -1.95267127860480        0.06174220358324
H           -1.47088014816896        2.99848332972779       -0.02557862916738
H           -2.68694568050946        2.09885221974941       -0.94507105986050
H           -2.71238439970886        2.08606310110183        0.83706152937534
H           -1.41983740054629       -3.25607213982194        0.82518599933067
H           -1.36411316094550       -3.24357879120277       -0.96316796554925
H           -2.69408319241402       -2.42670259200957       -0.09990940752150
H            1.31751301920860       -3.14612636912087        0.00987463188567
