25
 energy: 40.359457111168 xtb: 6.6.1 (8d0f1dd)
C            3.44707571407181        2.46458173528727        0.11001256807716
N            2.41272191182516       -0.38570125507558        0.07169725366452
C            2.51418638196283       -1.67562637969888        0.06298733300099
N            1.31222796861543       -2.34319384045291        0.00732970695819
C            0.35913775404265       -1.36676145562772       -0.01478354478679
C            1.05345303683521       -0.15115550829772        0.01878685140461
C            0.27605516049067        1.08960574230190       -0.01560370378053
O            0.67348692577099        2.22431571528221       -0.03008694815399
N           -1.11085719471976        0.87784869910026       -0.03912378455253
C           -1.95346773743829        2.07724847491764       -0.03869743824717
C           -1.76803053425596       -0.32001781021541       -0.06882870756315
O           -2.97926944454321       -0.34295645405938       -0.10510203323790
N           -1.00104110148627       -1.49446321363445       -0.05825600507163
C           -1.77386420348645       -2.71661437025598       -0.08496151590964
H            3.96664635739371        2.57937613148585        0.99367466565359
H            3.83268631662364        2.50451101712731       -0.84954178896293
H            2.42018150639522        2.67396409971746        0.17048568096718
H            3.43363964710308       -2.21426702640041        0.04484658281377
H           -1.29745622272561        2.93489405495245       -0.02850051385201
H           -2.56677856011401        2.11870281645125       -0.93375160138513
H           -2.56818258803971        2.11194656197956        0.85504586647601
H           -1.63197580243536       -3.31256277052084        0.81846512424742
H           -1.54313928938375       -3.31404749866511       -0.96641435739988
H           -2.82513767544942       -2.37798322749308       -0.13873944891748
H            1.17828573378812       -3.34353176326402        0.00362397679794
