25
 energy: 5.774345123415 xtb: 6.6.1 (8d0f1dd)
C            3.17004702684088        1.41653811026518        0.09003819123621
N            2.41553648541712        0.09258685887921        0.06392315972673
C            2.65730599942634       -1.31741170250507        0.05809514881583
N            1.44208831760961       -2.01859187246654        0.01893283156989
C            0.43356022810637       -1.12824078895193       -0.00484753947277
C            0.99536970765201        0.14902062658225        0.02019339370241
C            0.16292419819405        1.29808468878768       -0.00909842217684
O            0.53104030684771        2.47473774022355       -0.01609342979132
N           -1.23048508069936        0.99180940460059       -0.03412259819368
C           -2.14410226737391        2.12326652709880       -0.04653153569076
C           -1.80006726628555       -0.24082825665375       -0.05461239055717
O           -3.00386635975060       -0.41060566896422       -0.08218728789166
N           -0.92775531169568       -1.34961665228741       -0.04396257500063
C           -1.55221404062075       -2.65473905446984       -0.06750649836705
H            3.71434175496886        1.60527924660111        1.02793864056983
H            3.93334701581493        1.47772923581872       -0.70335633650965
H            2.42613740997074        2.19969423107979       -0.02803745756721
H            3.59203025480891       -1.82105019736746        0.04875666874547
H           -1.55209048169741        3.03316871160152       -0.02470161962418
H           -2.75081950110566        2.10712187225917       -0.94953298691962
H           -2.78672011525361        2.09174420006355        0.82974514461081
H           -1.30858315701366       -3.23079773943713        0.82737952466822
H           -1.26553072581997       -3.21390609947157       -0.96028123261973
H           -2.63226940856691       -2.48047018380169       -0.08927929329550
H            1.29007005335072       -3.02060478346716       -0.00167188828243
