25
 energy: 41.807154041266 xtb: 6.6.1 (8d0f1dd)
C            3.30443189620333        2.08843407920148        0.11019936086730
N            2.42259856807327       -0.22003144492856        0.09858088915537
C            2.58416325715754       -1.51080835582157        0.08815488364122
N            1.39892914837226       -2.21529875270760        0.01709360422383
C            0.40901531942750       -1.27345335904976       -0.00902076758164
C            1.05191904442533       -0.03126156531629        0.02572900732946
C            0.23492079530577        1.18177519901988       -0.01126453301826
O            0.58004421411460        2.33546697126026       -0.02654164104380
N           -1.15466331715020        0.92099868093740       -0.03677735469163
C           -2.03593549215327        2.08808629200903       -0.04246421246651
C           -1.76893261571246       -0.29332730521354       -0.06337372592177
O           -2.97616840634235       -0.38469710068300       -0.09968177092081
N           -0.95012457847068       -1.43601094468509       -0.05229097621953
C           -1.67401476523174       -2.68546893431976       -0.07673165116849
H            3.78149610299669        2.16746748103728        1.03032653935495
H            3.82776592586811        2.03737258440336       -0.78993049383719
H            2.30531707421226        2.42715552200869        0.12517923471199
H            3.52436914234308       -2.04367046897606        0.06346606554903
H           -1.41435554755654        2.97552264257477       -0.02679976112508
H           -2.64586318547404        2.10002487992336       -0.94098388528560
H           -2.66298569979795        2.08974272647633        0.84366634005289
H           -1.48987498989414       -3.27380661670300        0.82312237236104
H           -1.42456535646974       -3.26486757942505       -0.96512753316520
H           -2.73394422210892       -2.40063976628051       -0.11023141247803
H            1.29236601183414       -3.21961487221868        0.00712673327222
