25
 energy: 30.983635520996 xtb: 6.6.1 (8d0f1dd)
C            3.81440247046054        3.20104004270081        0.14424530974983
N            2.29586381241524       -0.69291109528700        0.03039470456260
C            2.33480057063576       -1.98197311842529        0.01963774550399
N            1.08815687227208       -2.55813750409488       -0.01258802756582
C            0.20616410288508       -1.52389027162398       -0.02494066928586
C            0.96691485756204       -0.36186736183091        0.00259980637354
C            0.33454948457584        0.93595081640121       -0.00482096659411
O            0.86051782651215        2.02180465119886        0.01315102542877
N           -1.06935806231783        0.81517848910920       -0.03564694413362
C           -1.82305992744521        2.05849335992290       -0.04042189100873
C           -1.83394030231817       -0.33052756233890       -0.06270646934164
O           -3.04509318387788       -0.29706589634067       -0.08955265215919
N           -1.15229985626024       -1.54928879680833       -0.05993970533052
C           -1.92875966488826       -2.77123834182467       -0.08386996306522
H            4.23942968718230        3.37642298624335        1.08676371117877
H            4.33892307358732        3.20361456083174       -0.76944171567905
H            2.77858840828182        2.94794079573957        0.10187978999172
H            3.23720132430616       -2.55589029201633        0.03792602303160
H           -1.10229154249743        2.87509836228538       -0.04155701927112
H           -2.45172972046921        2.10382015759558       -0.93010659841474
H           -2.46175437328201        2.10418205915432        0.84199252880577
H           -1.76733200680781       -3.36299777075781        0.81868827878100
H           -1.71735252374172       -3.37641245208049       -0.96755004406782
H           -2.98750514050737       -2.49912298616125       -0.11575096744230
H            0.89150085700814       -3.54402903219436       -0.02548996385911
