25
 energy: -4.070150526018 xtb: 6.6.1 (8d0f1dd)
C            3.20404265990195        1.29393056700282        0.08966704941612
N            2.35776775064041        0.10147655197556        0.04331920535403
C            2.62723906538607       -1.27427417334864        0.03857606949827
N            1.42551337072249       -1.97308747458869        0.00645535740800
C            0.41182244774343       -1.09073093987666       -0.00827923831783
C            0.95495877037407        0.18919037671574        0.01499283518183
C            0.13852977302327        1.34455872018068       -0.00587944697716
O            0.51745307847149        2.51922249538507       -0.00825978367286
N           -1.25180721319375        1.02195985092345       -0.03125016430612
C           -2.18565024297349        2.13446037130957       -0.04815313719175
C           -1.81460576319219       -0.21662636427729       -0.04910468712428
O           -3.01730751348729       -0.39190129934560       -0.07258362758197
N           -0.93866651546599       -1.32102001171552       -0.03952108168598
C           -1.51423362774839       -2.64611535401491       -0.06334121993212
H            3.71616053351886        1.41123248245359        1.05380670794324
H            3.98035941117528        1.25868067525998       -0.68583844171894
H            2.56391800652063        2.16023749841748       -0.06320703369939
H            3.58485758946929       -1.73357245974253        0.04650875134204
H           -1.61379222433500        3.05837029840895       -0.02553228497618
H           -2.78990994409634        2.09794564696746       -0.95285966126009
H           -2.83542135907951        2.08448602242155        0.82308498202233
H           -1.24065644278715       -3.21204083939478        0.82996446326219
H           -1.20528679346917       -3.19202045935489       -0.95767651287591
H           -2.59788533433117       -2.51545847305647       -0.08194878432872
H            1.32371863486863       -2.97592705756531       -0.00930940608118
