25
 energy: 13.521645039954 xtb: 6.6.1 (8d0f1dd)
C            3.15782779346546        1.47988529979949        0.09442391669698
N            2.43643749730491        0.07974046657529        0.07290471853830
C            2.67153831877229       -1.34199998989755        0.06669309605588
N            1.45512707779504       -2.04321052728687        0.01971668160150
C            0.44368386135523       -1.15190929541139       -0.00617569956577
C            1.01250630905324        0.12570782181599        0.01946140991857
C            0.17644733861035        1.27362201099591       -0.00908016126894
O            0.53875789854108        2.45182779770231       -0.01759502760516
N           -1.21785254074600        0.97691142049515       -0.03431296282158
C           -2.12347549995975        2.11580768802532       -0.04733715167342
C           -1.79071527823972       -0.25185340707500       -0.05562284014658
O           -2.99512173304911       -0.41519337171377       -0.08549644024564
N           -0.92262166535200       -1.36535415102268       -0.04513028901713
C           -1.57304506209645       -2.65815668626535       -0.06733793626674
H            3.70957628663338        1.70222539509113        1.02024425779145
H            3.90995235003852        1.58476070176449       -0.70698897304817
H            2.36794309920813        2.22161509164339       -0.00694385209023
H            3.59499510348548       -1.86427661961007        0.04607096170342
H           -1.52508298850956        3.02176220655535       -0.02673979214917
H           -2.72945415221611        2.10361332603481       -0.95035066343031
H           -2.76408124684120        2.09114427156795        0.83009379608407
H           -1.34416262119286       -3.23808181540842        0.82861461126161
H           -1.29819436144460       -3.22348013274485       -0.95938348665233
H           -2.65007862853206       -2.46026637681143       -0.09018050464251
H            1.30169763646933       -3.04858910153392        0.00243197285798
