25
 energy: 37.080640918016 xtb: 6.6.1 (8d0f1dd)
C            3.62700903673191        2.82235911805336        0.12144726149587
N            2.35877680877580       -0.54219574308576        0.04857997886065
C            2.43234876557054       -1.83319198013199        0.03731491024355
N            1.20510411548250       -2.45373352027666       -0.00095036713831
C            0.28525123276100       -1.45063008790496       -0.01900969883354
C            1.01673193711475       -0.26174429843661        0.00979047732727
C            0.30734958968075        1.00722251362391       -0.01203038245074
O            0.77263017242659        2.11895062479245       -0.01271681803388
N           -1.07910919299283        0.83919988196334       -0.04193254764243
C           -1.87423650268675        2.06773754049009       -0.03757478122669
C           -1.79821480667881       -0.33467791601545       -0.06647137817211
O           -3.01045958843320       -0.31836112387808       -0.09576300399020
N           -1.07707305791543       -1.53272352176094       -0.05875699143620
C           -1.87267663680084       -2.74336495615225       -0.08764814152181
H            4.09291144886146        3.01147997078787        1.01759006590643
H            4.00482379547750        2.96284805786511       -0.82838343865678
H            2.58482467439284        2.86376449442738        0.12147762932859
H            3.34009456204111       -2.38969864584005        0.05448619830900
H           -1.18534481239049        2.90448374812958       -0.03412177017219
H           -2.49109124335062        2.11701249114110       -0.92907138742030
H           -2.47398442851764        2.11568745879338        0.86494418180972
H           -1.76713174570120       -3.33784370002115        0.82020229824401
H           -1.65854778268875       -3.35712461721302       -0.96247920382265
H           -2.92164160870408       -2.41255284636444       -0.14205452240382
H            1.03452502381090       -3.44513439911485       -0.00866954376613
