25
 energy: 40.773294197251 xtb: 6.6.1 (8d0f1dd)
C            3.40830430352148        2.37187880995648        0.11017429399303
N            2.41934843650146       -0.34517651220952        0.07861092686754
C            2.53469041213111       -1.63550387501605        0.06859574868216
N            1.33704397022821       -2.31267130567446        0.01004043430188
C            0.37438530938734       -1.34401438088380       -0.01298702386870
C            1.05731775503757       -0.12181617193738        0.02183894599828
C            0.27153562020896        1.11244590498058       -0.01423270433678
O            0.65020244231385        2.25265968751458       -0.03076607393609
N           -1.11838142603807        0.88952930364477       -0.03813298870333
C           -1.97335234395499        2.07989569917346       -0.03951743358358
C           -1.76404138676174       -0.31316404455218       -0.06793940050879
O           -2.97441416547328       -0.35299376186307       -0.10489407080129
N           -0.98480324830926       -1.48160708248139       -0.05738109949818
C           -1.74703533968163       -2.71040211419971       -0.08307062969075
H            3.92835366496914        2.47180606276505        0.99702255372278
H            3.81347650023901        2.38573510693457       -0.84333426346228
H            2.38786127716228        2.61414362744233        0.17350703266756
H            3.45997340695850       -2.17215894790779        0.04454028631901
H           -1.32798477969820        2.94677914334278       -0.02836397530413
H           -2.58693427931771        2.11502725639780       -0.93474550931918
H           -2.59222767592476        2.10779392901115        0.85177073938689
H           -1.59676031669455       -3.30409011423731        0.81949535530080
H           -1.51420301562693       -3.30336407144412       -0.96631643610212
H           -2.80049859717619       -2.38406548844103       -0.13192621874670
H            1.21187615330715       -3.31482586234595        0.00479014374660
