25
 energy: 39.821468074758 xtb: 6.6.1 (8d0f1dd)
C            3.48877441557052        2.55521486169156        0.10928811337127
N            2.40402170304860       -0.42629007003763        0.06494633638725
C            2.49528837631547       -1.71631449977747        0.05576471194780
N            1.28766569889616       -2.37326012190199        0.00468373420068
C            0.34293081912777       -1.38966409069683       -0.01671844223754
C            1.04861821900365       -0.18127354092515        0.01521967486724
C            0.28407149737844        1.06657533132526       -0.01590003390240
O            0.69831491815010        2.19603402419477       -0.02726713599205
N           -1.10280222492502        0.86681643050429       -0.04021715819115
C           -1.93322737551737        2.07551347464065       -0.03819027576858
C           -1.77383482507969       -0.32556911940000       -0.06874348873692
O           -2.98574043642377       -0.33356265882806       -0.10377233586796
N           -1.01876034215901       -1.50617407239160       -0.05889170362691
C           -1.80053265091955       -2.72284466293946       -0.08654890632664
H            4.00051747658313        2.68703627020924        0.99395152081494
H            3.86438619938540        2.62261426822897       -0.85134188506587
H            2.45579588674266        2.72744716024133        0.15666288431079
H            3.41084732302977       -2.25842221408761        0.04805813078253
H           -1.26733963496877        2.92439916272224       -0.02898509209993
H           -2.54651038529102        2.12411830523691       -0.93284603878701
H           -2.54436428948204        2.11807379472086        0.85761389056349
H           -1.66747861060801       -3.32041173695552        0.81785661479373
H           -1.57250091069147       -3.32578630829686       -0.96573571078341
H           -2.85099928649098       -2.37850037721416       -0.14427951630453
H            1.14525698734185       -3.37197549494880        0.00187207108482
