25
 energy: 38.143300252353 xtb: 6.6.1 (8d0f1dd)
C            3.57982585009796        2.73268111219642        0.11701373764468
N            2.37569340521635       -0.50461801360348        0.05270160493312
C            2.45498492570343       -1.79542509490546        0.04167394203700
N            1.23428004016895       -2.42862015423330        0.00058315111333
C            0.30573260905092       -1.43272473342018       -0.01969592535220
C            1.03066363569430       -0.23805848606964        0.00973378778800
C            0.29743605708293        1.02411724266845       -0.01388107842550
O            0.74706758804203        2.14159559671393       -0.01795072553501
N           -1.08798030955947        0.84686863954395       -0.04211949475639
C           -1.89339856420834        2.07155974710504       -0.03742274567468
C           -1.78966384490203       -0.33464792641333       -0.06757685974897
O           -3.00184634945582       -0.32576626556115       -0.09788059165458
N           -1.05738113278816       -1.52765419890973       -0.05944325939835
C           -1.85200716133349       -2.73680922502508       -0.08801485244582
H            4.06369887794453        2.90792623990807        1.00645224299159
H            3.95050323046021        2.85412404732236       -0.83862243187692
H            2.53973183888894        2.81670475135303        0.13988913784298
H            3.36561472121648       -2.34652820179283        0.05456181246241
H           -1.21278545403260        2.91221248507473       -0.03176071955825
H           -2.50948733415084        2.12206535902886       -0.92993418780496
H           -2.49747026324855        2.11646861515603        0.86293880097628
H           -1.73622737449895       -3.33233215578201        0.81916737623394
H           -1.63104111296233       -3.34799628883740       -0.96346165083047
H           -2.90338744573907       -2.39670179821632       -0.14604225814647
H            1.07301683211482       -3.42254343584974       -0.00454322863647
