72
 energy: 60.432538156909 xtb: 6.6.1 (8d0f1dd)
N           -1.32497028326397        3.05698917295808        1.93047970122527
C           -1.70598023794322        1.91384739096046        1.46701886348275
C           -2.93325508277417        1.72239790873949        0.79411746683453
C           -3.44222192907594        0.38815162645062        0.66650076483045
C           -4.41305835406994        0.04103673033320       -0.28848494029651
C           -4.93103071730846       -1.22984550072533       -0.37119182942835
O           -5.88872588612656       -1.63399996445932       -1.26057085530116
C           -6.47323401585413       -0.66987094699074       -2.09404592650733
C           -4.47436290016778       -2.23478241208589        0.50749354137841
O           -5.03688807294544       -3.46831280558166        0.33389218642874
C           -4.67270087331143       -4.50526064977945        1.20283700458609
C           -3.53299426771387       -1.89890455324086        1.46144193530595
C           -3.02319887401424       -0.61978215773707        1.53637247922650
C           -1.50833976991141        3.05041182044384       -1.99935290572230
C           -1.06761104195581        1.66569937651760       -1.78261354244988
C            0.24953499614425        1.48514784671841       -1.17906017981521
N            0.65226418776247        0.31589843407083       -0.64976787610004
C            1.99605066337086        0.16745486474684       -0.15774268725253
C            2.90709153906287       -0.44707354807779       -1.23281434777470
C            4.33860302762762       -0.39023993236303       -0.79174410490641
C            5.08921318429926        0.74922274778713       -1.00540148796273
C            6.40734118467538        0.82037443040109       -0.57616837427215
C            6.99428070926307       -0.25122017132658        0.07390367786812
O            8.27687751735347       -0.28956984177664        0.53332876740112
C            9.08619385531905        0.84463525209043        0.34152025669879
C            6.23258229485984       -1.42187247028307        0.29860609739275
O            6.89260955770291       -2.42429012698827        0.94044424361512
C            6.22176611743256       -3.63566408693930        1.16396507979407
C            4.91839433909333       -1.47224061900885       -0.13231027733491
C           -0.16553863986932       -0.87541559397198       -0.74280342287540
C           -3.92939490485438        2.86699494882420        0.71222387942597
C           -4.42761038292429        3.15824546999465        2.13869700715962
C           -3.37458724030578        4.16898485515774        0.13730632127237
H           -4.76013083481930        0.79896877570386       -0.97225157231501
H           -6.95725060219571        0.12316621405370       -1.51234225522244
H           -7.22893977168612       -1.20671084113141       -2.66553720356696
H           -5.74221922800758       -0.22286224362721       -2.77877224054306
H           -4.92069923900108       -4.26875450992079        2.24345642166391
H           -5.25609886353955       -5.36869733660983        0.88409915288747
H           -3.60542525477876       -4.74808359143652        1.13329331518054
H           -3.20057969720237       -2.62738765335319        2.18031286245528
H           -2.34379335426721       -0.38552960162696        2.33398009685530
H           -2.24490401011999        3.18399297220012       -2.74452068303013
H           -0.82461771464534        3.84003847861768       -1.78880604517570
H           -1.81913987844989        1.23450760954977       -1.09391494969469
H           -1.17958146604059        1.06566357628720       -2.68033148987678
H           -1.08248572267687        1.01548578029244        1.53907368349718
H            0.95304134248035        2.30923245087709       -1.14420350306090
H            1.99449327675927       -0.45882313791276        0.73862655295783
H            2.37759472230412        1.15047155695708        0.11571494753277
H            2.77650878033851        0.12214836935741       -2.15637126518816
H            2.60241048503810       -1.47757248675085       -1.41668323452097
H            4.65240204597398        1.59282509496342       -1.51950494448576
H            6.96599599002398        1.72440092273779       -0.75989070847316
H            8.67410826576859        1.72569478449062        0.84591422184866
H            9.22186288186187        1.06891477326741       -0.72231231424171
H           10.04951839110129        0.59106724060865        0.78265425078948
H            6.94383583373317       -4.28166683639266        1.66224295625735
H            5.34809930435949       -3.49979744255043        1.81056587518378
H            5.90668890465314       -4.10100977430725        0.22371460438461
H            4.32687319483018       -2.36088639066605        0.02798656496653
H           -0.30505438693383       -1.18820300556848       -1.78549048922534
H           -1.15745999057544       -0.70498088505240       -0.31128343060919
H            0.28951646041333       -1.69568677663107       -0.18790061549093
H           -4.79853841190894        2.56880345430612        0.11233353352306
H           -3.58621372288616        3.46910772596073        2.75019767197627
H           -4.86863198725995        2.27142411009039        2.58408181613901
H           -5.17643229528438        3.94624989417445        2.11500366291923
H           -2.49552753139814        4.44910833017912        0.71557360216355
H           -3.08295346582221        4.03171393950107       -0.89754120888631
H           -4.11190446218806        4.97830327348325        0.16971160732016
H           -0.41847694624309        3.08370438578344        2.39938906985992
