72
 energy: 65.558927075849 xtb: 6.6.1 (8d0f1dd)
N           -1.37684050950624        3.07472469646431        2.01989745140545
C           -1.65903633863361        1.99081491893483        1.36356060600113
C           -2.87334934250950        1.80102122851233        0.64595795037314
C           -3.38797092155228        0.45703133814244        0.55451041816830
C           -4.38209230418895        0.09626142874137       -0.37157546053524
C           -4.91507620475531       -1.17015027732300       -0.40812564451836
O           -5.87235445437951       -1.59781818848773       -1.28937689140206
C           -6.45042680965637       -0.65537237071557       -2.14880173608793
C           -4.45961246741904       -2.15344151753563        0.49480845120055
O           -5.02311797598989       -3.38854907255792        0.35030733325795
C           -4.66914529302781       -4.39682468101213        1.25606395566942
C           -3.51535745288301       -1.79628465524677        1.43893914798459
C           -2.98957406434155       -0.52013349696961        1.46764880309363
C           -1.69107894135496        2.89689394006827       -1.71148248430198
C           -1.10326601999562        1.53167931502109       -1.74575725644962
C            0.19287051561752        1.40241736184615       -1.10937449737836
N            0.66180086310220        0.23326768443031       -0.61379814422222
C            2.01577527919342        0.11973352422937       -0.15413327546233
C            2.92483043954586       -0.46497562547328       -1.24728979807515
C            4.35355733363140       -0.40045227470047       -0.80853087138508
C            5.09456103845706        0.74604014330238       -1.01548947580525
C            6.40786589468697        0.82843282212538       -0.57779341893032
C            6.99730687528741       -0.24096839733936        0.07399928399736
O            8.28301837327291       -0.27266134060195        0.53465898973967
C            9.08181780014204        0.86576948922068        0.33673580803524
C            6.24385270006928       -1.41668578208720        0.29767690080573
O            6.91067881352643       -2.41535468080835        0.94283480062277
C            6.24614314941852       -3.62918217600717        1.16262224993630
C            4.93306734480740       -1.47699288761643       -0.14024129099125
C           -0.12942975205637       -0.98330958522860       -0.70851385468167
C           -3.91332173260939        2.90784420739849        0.65342996688407
C           -4.44410345813992        3.04276293827118        2.09161091202922
C           -3.37741248111439        4.27970350466813        0.22833294224075
H           -4.73076500279574        0.84175465780862       -1.06608314081015
H           -6.92505571715872        0.15887040998102       -1.58999323963147
H           -7.21338378263599       -1.20186557020604       -2.70148979334726
H           -5.71949270923002       -0.23434297200434       -2.84904520097309
H           -4.91143063571850       -4.12035249262754        2.28869383933233
H           -5.26254345796303       -5.26604141506572        0.97516532235451
H           -3.60510611971758       -4.65491409248703        1.19343972452418
H           -3.16781090864389       -2.51753814974570        2.15859074576192
H           -2.29080273257901       -0.27160902010314        2.24914213530855
H           -2.44406897963815        3.02381296386372       -2.45700857199957
H           -0.99887922161715        3.69763508910755       -1.56118210441160
H           -1.80023038622499        0.90640312045133       -1.22006561203015
H           -1.11998641521378        1.17604168368829       -2.77703092787840
H           -0.92482530748875        1.17530375037257        1.32362688341032
H            0.88557323929091        2.22401779130657       -1.09898011484003
H            2.05045253626207       -0.50343939899399        0.74341564231157
H            2.36301397563891        1.11463562720584        0.11506392790075
H            2.77267745325310        0.11334058123588       -2.15956948571894
H            2.62400611905419       -1.49774658012703       -1.44320365183248
H            4.64784849917767        1.58360360357719       -1.52884654839470
H            6.95849981953217        1.73776218810589       -0.75870145302379
H            8.66735110438472        1.74725527820713        0.83806374243316
H            9.21526807345168        1.08742759278424       -0.72805477065842
H           10.04854971481529        0.61979324617664        0.77689202636797
H            6.97237331895886       -4.27040916378067        1.66095978611827
H            5.37120075434997       -3.50056057909944        1.80839405756199
H            5.93645103268277       -4.09670174597426        0.22158714964670
H            4.34563241827254       -2.36698109957207        0.01554622079218
H           -0.28204917328059       -1.29725475548744       -1.74903145765286
H           -1.11920937686368       -0.84485967197417       -0.26066528921767
H            0.34783175749555       -1.79860159170191       -0.16540987808296
H           -4.76675069133909        2.65219777500606        0.00903929783702
H           -3.62971299505786        3.31891737431333        2.74837172097788
H           -4.88534838455817        2.10943863431994        2.44923612502359
H           -5.20592027161342        3.81513206731996        2.11633444939479
H           -2.52682228504088        4.50099390840741        0.86984965297131
H           -3.04891164622738        4.25912428628652       -0.80384684218125
H           -4.13566067845698        5.05454877124246        0.33737031514467
H           -0.45829778925222        3.02476967417486        2.44875223800605
