72
 energy: 26.767670985161 xtb: 6.6.1 (8d0f1dd)
N           -1.44861110540628        2.97703664121283        2.12609631823724
C           -1.58683319411917        2.07630915344340        1.24272030227146
C           -2.75027461212564        1.97635907746031        0.31594981437153
C           -3.30997021486132        0.54873715119607        0.39746356763811
C           -4.33537945634132        0.16658112672593       -0.47291760031366
C           -4.88435969172773       -1.10011058226941       -0.46201871437835
O           -5.84888214852325       -1.54568057198187       -1.31796169922210
C           -6.42639761031961       -0.63344819877426       -2.21440974724451
C           -4.43237249573624       -2.05341724103875        0.47465596871288
O           -5.00649912149215       -3.28370000423220        0.37927541708346
C           -4.66525318769252       -4.26282166525375        1.32551160758162
C           -3.48141054444790       -1.66335549872475        1.39737174212018
C           -2.94371844748330       -0.37760877361350        1.37124733443756
C           -1.97562320983003        2.57235948163565       -1.30225372639414
C           -1.17835134846339        1.35953765310132       -1.72958423741730
C            0.09562618434259        1.30346919262028       -0.98939647486741
N            0.64742744149208        0.10714435508580       -0.57450738232358
C            2.00918222611782        0.05507785105834       -0.15515262871551
C            2.93498926268784       -0.49874397539154       -1.26197897751344
C            4.35976308821802       -0.41584516843910       -0.83006360835091
C            5.09216586365752        0.73734344145962       -1.03183989601693
C            6.40157399778139        0.83442210016007       -0.58857019945931
C            6.99912186663898       -0.22624609649656        0.06789858277815
O            8.28261578078907       -0.24442689674362        0.53347895730220
C            9.07756494658962        0.89433901969038        0.32888607153877
C            6.25634962746202       -1.40692001168823        0.29078822485240
O            6.93071890109225       -2.40094245713910        0.93976863350438
C            6.27798205264495       -3.62271971296176        1.15839155773397
C            4.94940898892908       -1.48308232210690       -0.15369133517819
C           -0.09437635535454       -1.12730662856153       -0.66800452895525
C           -3.88800202961110        2.98511424956760        0.59964934668616
C           -4.45911109582371        2.91303772406977        2.01954016739416
C           -3.38385878557060        4.40698975699445        0.36770656376065
H           -4.69447905658142        0.88619481742539       -1.18802873794509
H           -6.89192915528288        0.20593547021948       -1.68692000510710
H           -7.19440782280626       -1.19610528927785       -2.74335478849145
H           -5.69531107633164       -0.24933212562144       -2.93457890175239
H           -4.89817398904270       -3.93929823958535        2.34538185554227
H           -5.27564844518560       -5.13008784430389        1.07836503595602
H           -3.60643171819977       -4.53810472847169        1.26501722484303
H           -3.12549697773836       -2.36951047354426        2.13322253186667
H           -2.22321348411757       -0.13074033904550        2.13597275578296
H           -2.71636064442082        2.75438871230536       -2.09724203510895
H           -1.30055299284747        3.44637518942584       -1.25771916549024
H           -1.79542770638983        0.54575379986050       -1.41349005245658
H           -1.11587451459793        1.30991840233915       -2.84332617901236
H           -0.80247171712623        1.34937322010726        1.00003533281618
H            0.77094402311012        2.13226008356517       -1.04149091642653
H            2.10935977788092       -0.56419086971982        0.74534219901177
H            2.33293007946085        1.06191189684087        0.10723564094763
H            2.76765944341588        0.09383753176835       -2.16198605097434
H            2.64924049858175       -1.53205125930720       -1.47365073280479
H            4.63798457988091        1.57359724628656       -1.54248808990533
H            6.94451217772445        1.74727941047654       -0.77227005978841
H            8.65999536174120        1.77583791951272        0.82788156716088
H            9.20812464491649        1.11140660992124       -0.73714181533141
H           10.04448501918439        0.65300306410231        0.76908575349980
H            7.00985315038945       -4.25611562434485        1.65828365835649
H            5.40108828569060       -3.50363314832706        1.80371807771536
H            5.97430594715064       -4.09464912490410        0.21746231559480
H            4.37148538843032       -2.38016361820053        0.00699586396625
H           -0.25402938585941       -1.44310603097094       -1.70718034062551
H           -1.07417467490183       -1.02727527361176       -0.19219218436452
H            0.44050749556292       -1.91658998973940       -0.14347091640881
H           -4.71832000490607        2.79144972439578       -0.09217833057724
H           -3.68129661986335        3.12929475997469        2.74181787340294
H           -4.87953953942761        1.93418088797996        2.23982236088791
H           -5.25559711572793        3.64959865005673        2.12073085494525
H           -2.55821145441486        4.59288001587294        1.05009644340290
H           -3.04258349531717        4.53278751163380       -0.65090211489115
H           -4.17880140078277        5.12284275367853        0.55173347070122
H           -0.52800697281134        2.86214176337628        2.53767472887562
