72
 energy: 0.736297683404 xtb: 6.6.1 (8d0f1dd)
N           -1.47455907948221        2.88163794715222        2.19174170590831
C           -1.57152383022391        2.10874140195643        1.19678937597257
C           -2.73735913924652        2.02721220822401        0.25731926824032
C           -3.31143576790566        0.60283351777824        0.36061051671805
C           -4.31929962370880        0.20849527467648       -0.52383161863710
C           -4.86597172522022       -1.05997977505230       -0.49603382625940
O           -5.83272476447601       -1.51766164966290       -1.34190922558969
C           -6.40984439808498       -0.62130431754138       -2.25516156559315
C           -4.41466288587843       -1.99720875869705        0.45872389290340
O           -4.99913311318505       -3.22532842340803        0.39476496731111
C           -4.66505964640704       -4.18129680975789        1.36746080200814
C           -3.45147798543901       -1.60111959125043        1.36592499835456
C           -2.91633097585850       -0.31489967508781        1.32403556236474
C           -2.09290493331463        2.43166460392159       -1.21352078451269
C           -1.22114721675217        1.27111391358051       -1.69661217349096
C            0.04848079673963        1.21365982860247       -0.93736391183240
N            0.64651546049083        0.02828971293173       -0.56300674460191
C            2.01129183434729        0.01144227718547       -0.15576789812198
C            2.93763295957548       -0.52042430612144       -1.27103232554245
C            4.36203666039536       -0.42518670686511       -0.83670988295352
C            5.08483617287108        0.73479296010151       -1.03810327717252
C            6.39434875139029        0.83860374315708       -0.59546391105666
C            6.99808687096743       -0.21750762163387        0.06282591044225
O            8.27943253324684       -0.22761418604323        0.53064593622313
C            9.07364764151026        0.91122041379708        0.32383977203161
C            6.26289377682769       -1.40372185233347        0.28620276434786
O            6.94195149546371       -2.39220995201519        0.93588267452554
C            6.29637517984504       -3.61855288282898        1.15574956311326
C            4.95756336319250       -1.48775887801235       -0.15841909127499
C           -0.07099929980687       -1.21551535253091       -0.64367268407751
C           -3.87923205904029        3.02996729907190        0.58629871364971
C           -4.47825034789812        2.84324481671515        1.98094124003903
C           -3.38831241328530        4.46773350739423        0.45913577513192
H           -4.67550683067666        0.91688244075588       -1.25231256016960
H           -6.86911737744586        0.23248711523312       -1.74570515912186
H           -7.18274969117598       -1.19030619958080       -2.76993080743464
H           -5.67970856144710       -0.25846510598719       -2.98705341286287
H           -4.89161873955078       -3.82644742241432        2.37816755392833
H           -5.28425769575832       -5.04924338293287        1.14585858495048
H           -3.60905305729955       -4.46793413613934        1.31146890686231
H           -3.09533570995509       -2.29396460090333        2.11375461026702
H           -2.18277357602664       -0.05350609395051        2.07127740298358
H           -2.86911373398013        2.56579259774620       -1.98309912934137
H           -1.47352427312512        3.33814110809486       -1.22326751129184
H           -1.80554576448367        0.38439180581442       -1.52592082458053
H           -1.06178660754405        1.36467831697473       -2.78951764993536
H           -0.73817442571480        1.49913419333362        0.81288375010197
H            0.70494946183159        2.06009483554512       -0.99071053814982
H            2.11480086800424       -0.61318844258568        0.73902974373680
H            2.31734614702656        1.02510626929190        0.10728037846487
H            2.76629156528959        0.08050950644905       -2.16525539649990
H            2.66484979541521       -1.55385168262533       -1.49313917985599
H            4.62978558801922        1.56815641854909       -1.55246030578279
H            6.93484567585829        1.75270310238277       -0.78091824976794
H            8.65564123904099        1.79294070757905        0.82177227756635
H            9.20440694348582        1.12564365075603       -0.74250587008923
H           10.04062012170608        0.67221370757531        0.76458215171446
H            7.03161060081647       -4.24691873424738        1.65663996015623
H            5.41869939129830       -3.50502907264386        1.80121530376897
H            5.99636665241416       -4.09367486795895        0.21527206824160
H            4.38627518494262       -2.38949350261284        0.00056947787488
H           -0.23751159500826       -1.53196817544762       -1.68083374449182
H           -1.04439381066242       -1.13403233409197       -0.15064154298102
H            0.49933727866549       -1.98700187166993       -0.13200325692578
H           -4.68572416695763        2.87464268768161       -0.14068623114142
H           -3.71919145973497        3.01668037568405        2.73515960466395
H           -4.87947897213012        1.84196766726202        2.11033849183909
H           -5.29097752477229        3.55403810283677        2.12470109950169
H           -2.57944873115542        4.63650318568901        1.16473790462668
H           -3.03763368911415        4.67520798505914       -0.54491567739729
H           -4.20220311780660        5.15178578056305        0.68054706930518
H           -0.56000406128721        2.83483448292901        2.63899715810081
