72
 energy: 53.862008531035 xtb: 6.6.1 (8d0f1dd)
N           -1.43635922412805        3.03200517934467        2.07114125073675
C           -1.62088086965350        2.04081489044571        1.28303777087898
C           -2.80779554524060        1.89843636749246        0.45982087228512
C           -3.34293100213366        0.51285078984438        0.45738375947671
C           -4.35646711421346        0.13820383136528       -0.43480118055345
C           -4.89815434944089       -1.12819329992990       -0.44050948111507
O           -5.85968453023823       -1.56677737364962       -1.30569754025212
C           -6.43733431008445       -0.64185014057865       -2.18799893464083
C           -4.44571629634490       -2.09201836438944        0.48455931672002
O           -5.01291302426943       -3.32548842384274        0.36803789726395
C           -4.66625513207710       -4.31665100183191        1.29807615651107
C           -3.50053145759431       -1.71283166270876        1.41920689149771
C           -2.96662310063418       -0.43241153834361        1.41094224128558
C           -1.85066407540296        2.70526544906629       -1.47285594175744
C           -1.13996445457111        1.41395894044398       -1.74521905644423
C            0.14156446120377        1.33880364686599       -1.04302655155953
N            0.65349401381099        0.16002415117231       -0.58100034076115
C            2.01058453587520        0.08239556193595       -0.15100863258976
C            2.93034202181477       -0.48407660477453       -1.25542985178795
C            4.35679763955735       -0.40861136413449       -0.82136786185211
C            5.09440880665900        0.74030905972725       -1.02542949252167
C            6.40626767030785        0.83176134503670       -0.58569730638481
C            6.99894800191760       -0.23210783897470        0.07026026314970
O            8.28332155321752       -0.25582566366495        0.53310455453674
C            9.08002005991948        0.88299965872781        0.33173830112182
C            6.25112135500721       -1.41057552012813        0.29426267972508
O            6.92303216067996       -2.40662265939181        0.94199106199291
C            6.26533569583874       -3.62540749669279        1.16035524450528
C            4.94253087216157       -1.48014568586541       -0.14818621266592
C           -0.10850387531970       -1.06974394460633       -0.68227578082315
C           -3.89917302303405        2.95370320827373        0.62142481463390
C           -4.45364406061173        2.96339809864940        2.05282429146905
C           -3.38108626560776        4.35915859148810        0.31082680046182
H           -4.70880930021364        0.87023908034146       -1.14034097626638
H           -6.90638812024702        0.18782362377018       -1.64812119684125
H           -7.20253009482027       -1.19850343427801       -2.72673515099838
H           -5.70577689668539       -0.24325628504271       -2.90016540697458
H           -4.90277599202038       -4.01266589844093        2.32348366405600
H           -5.27016636781350       -5.18405980404608        1.03586874061478
H           -3.60521839506322       -4.58462871684712        1.23570684414679
H           -3.14224552892196       -2.42767240026360        2.14311890570413
H           -2.25091633212549       -0.18498832629560        2.18019609780697
H           -2.60773138547837        2.88262512224659       -2.22861950130126
H           -1.16502141181979        3.54518377635062       -1.37175809323336
H           -1.79398221286327        0.67578305917736       -1.33457449402632
H           -1.10301140272435        1.22860953256449       -2.84681963044578
H           -0.84951962863278        1.27694899255739        1.13347975550029
H            0.81222372488112        2.17473940647221       -1.06788683767781
H            2.08863079817016       -0.53749121128145        0.74922610321969
H            2.34647815015597        1.08306629578775        0.11540718273519
H            2.76600994784512        0.10205618119360       -2.16043415349988
H            2.63722571307880       -1.51757371923351       -1.46127456099860
H            4.64126421739541        1.57582760483415       -1.53644765816459
H            6.95042656325482        1.74415308307645       -0.76684103665565
H            8.66307584330133        1.76420149708436        0.83175493923026
H            9.21099793536135        1.10196718616799       -0.73378530737225
H           10.04710448495715        0.63979968936825        0.77140436197920
H            6.99490644567348       -4.26200047730831        1.65963595624982
H            5.38912959229642       -3.50233298333430        1.80563501636513
H            5.95927846350373       -4.09537566197500        0.21922868042851
H            4.36092136298126       -2.37452342390235        0.01049073328497
H           -0.26495612207694       -1.38322439185390       -1.72243256694865
H           -1.09213941579712       -0.95350986625812       -0.21910169369008
H            0.40090297439635       -1.87143595344136       -0.15042436640576
H           -4.73943925865613        2.73549118327233       -0.05194469659292
H           -3.65842227515382        3.20387144525350        2.74728925257993
H           -4.88537815753588        2.00048215085247        2.32825121192819
H           -5.23662078631710        3.71563898684781        2.12328722103727
H           -2.54486413203819        4.55832619504808        0.97651510382299
H           -3.04611714052602        4.42748830093637       -0.71445045277784
H           -4.15998811830957        5.09872635817799        0.46921585714327
H           -0.50837781851143        2.92801699842381        2.47732024163927
