72
 energy: 64.196307262592 xtb: 6.6.1 (8d0f1dd)
N           -1.40017473061057        3.07289529362088        2.04191682841950
C           -1.65104771042951        2.01587618150731        1.33819195286398
C           -2.85548622829379        1.82972473866498        0.59382247400136
C           -3.37381745275062        0.47563958833662        0.52372248129335
C           -4.37446533569137        0.11052999275882       -0.39244751625421
C           -4.91063125241667       -1.15561689001897       -0.41829770459046
O           -5.86809414736790       -1.58798791303126       -1.29537600727302
C           -6.44529495974092       -0.65116970608704       -2.16214180741494
C           -4.45600849136848       -2.13260504403657        0.49192626822256
O           -5.01979317487322       -3.36796637251547        0.35580839098426
C           -4.66863868866049       -4.37017493747929        1.27003962497977
C           -3.51191257947365       -1.76848318240504        1.43385511723719
C           -2.98302850626082       -0.49150455408776        1.45034819849372
C           -1.73903671199192        2.83743627760423       -1.63581440649203
C           -1.11306596812210        1.49027581736234       -1.74609676867110
C            0.18149438758752        1.37262159849097       -1.09843679682025
N            0.66042830415913        0.20743228332900       -0.60334020564484
C            2.01568076638660        0.10660710122866       -0.15279762869133
C            2.92699336209875       -0.47154546569275       -1.25017061726130
C            4.35536727026228       -0.40313137693923       -0.81279774272954
C            5.09502934613962        0.74426420136495       -1.01884037684095
C            6.40823813083632        0.82960823570307       -0.58024739545483
C            6.99813863748806       -0.23794149649745        0.07304892884307
O            8.28348152760540       -0.26705224092793        0.53383469711615
C            9.08115966348784        0.87162797055952        0.33495956516355
C            6.24657511061463       -1.41472628156282        0.29679454746256
O            6.91511773126002       -2.41245820947568        0.94288658750872
C            6.25249179978881       -3.62741466338207        1.16198295712691
C            4.93662877074793       -1.47810928090002       -0.14291306991811
C           -0.12227680832922       -1.01349150838135       -0.69977634590118
C           -3.90899499728998        2.92182035546403        0.64186451685209
C           -4.44830066791649        3.01528195432929        2.07891205402807
C           -3.37773186840030        4.30609808845057        0.25575015937397
H           -4.72292842285479        0.85250903831672       -1.09021036659788
H           -6.91771731091002        0.16800401293451       -1.60933494775894
H           -7.20936562380849       -1.20032188692986       -2.71010329699560
H           -5.71401263114887       -0.23741936729541       -2.86615787836313
H           -4.90940025202641       -4.08405690463323        2.30008568379338
H           -5.26494359307306       -5.23978937437428        0.99688558720291
H           -3.60559603231331       -4.63213026568046        1.20847253512748
H           -3.15876302711816       -2.48871873330382        2.15258800211648
H           -2.27737071206257       -0.24257159587498        2.22710838405050
H           -2.49725680046779        2.98061588656558       -2.37869201558606
H           -1.05049554753285        3.65008494308252       -1.50280110713867
H           -1.79569330133642        0.82530025856954       -1.26086893902182
H           -1.11169951991143        1.19207865116308       -2.80324611724178
H           -0.89597612472516        1.22756087796630        1.27101491620037
H            0.86620429120768        2.20072503232822       -1.08511676714299
H            2.06325615185650       -0.51534994108537        0.74553417262462
H            2.35807445272052        1.10378990459783        0.11571828097540
H            2.76992116283890        0.10999135563617       -2.15946820659309
H            2.62837995886317       -1.50445286493713       -1.44947366948150
H            4.64587624977502        1.58106594752109       -1.53131368473377
H            6.95575988108902        1.74061635741992       -0.76067526932384
H            8.66612614076054        1.75303004903701        0.83587130835893
H            9.21404128152176        1.09241797531063       -0.73000063729709
H           10.04814908696426        0.62653229241372        0.77492445641427
H            6.97972495664440       -4.26740543573586        1.66048080351895
H            5.37718847515532       -3.50075215705183        1.80767858474012
H            5.94401666248996       -4.09569540863587        0.22086887894631
H            4.35083074623432       -2.36928969198207        0.01259005570649
H           -0.27653771883266       -1.32620177542585       -1.73996845792975
H           -1.11013386241627       -0.88127038089122       -0.24786219516094
H            0.36374286268007       -1.82493194044557       -0.15978591402993
H           -4.75817834758021        2.67935102672201       -0.01121369022408
H           -3.64167504742594        3.28175758019432        2.74772330880551
H           -4.88934196836095        2.07201097067939        2.41118404838229
H           -5.21574871965784        3.78175728131177        2.11613631342376
H           -2.53427066742356        4.51347017300672        0.90998329405774
H           -3.04209411160905        4.31147007650127       -0.77095727584723
H           -4.14102441607510        5.07037620386333        0.38104078460102
H           -0.47526861338360        2.99641204166358        2.45643946970537
