72
 energy: -3.389095460751 xtb: 6.6.1 (8d0f1dd)
N           -1.48297957834183        2.84637622880620        2.21151537032741
C           -1.56548848440296        2.12461126924531        1.18087577301501
C           -2.74059180471594        2.04494437450177        0.25232796667406
C           -3.31451358091749        0.62198922566923        0.34955014301673
C           -4.31440099674800        0.22245918581057       -0.54128906205070
C           -4.85978020831450       -1.04686584538685       -0.50784818610906
O           -5.82772027978755       -1.50841782254136       -1.34973857446235
C           -6.40532992074037       -0.61775657633133       -2.26859761480790
C           -4.40872248397822       -1.97860106509707        0.45298355618229
O           -4.99657184881652       -3.20580372668051        0.40004679512337
C           -4.66466253434948       -4.15383598047873        1.38146301786871
C           -3.44117001427986       -1.58074256379374        1.35484548280841
C           -2.90755007573710       -0.29457813750260        1.30765094167791
C           -2.12771036724898        2.38867187965360       -1.20054828157442
C           -1.23559727851573        1.24107002537596       -1.68605555327891
C            0.03282878599528        1.18398877847735       -0.92135927366270
N            0.64352650568055        0.00221425673705       -0.56122846357085
C            2.00953259676960       -0.00321164770818       -0.15663896768502
C            2.93754538077045       -0.52748280697101       -1.27419481786928
C            4.36220130100788       -0.42878754778631       -0.83972516029221
C            5.08228800934452        0.73330849057714       -1.04044579150830
C            6.39183572921044        0.83989591809899       -0.59792036731589
C            6.99781653701957       -0.21455399854061        0.06101401376204
O            8.27818890059570       -0.22209551382175        0.52974958756130
C            9.07232479671137        0.91672807154230        0.32223374632041
C            6.26538482642298       -1.40255837717941        0.28415975651060
O            6.94563971477456       -2.38915291168617        0.93451678928685
C            6.30282345796410       -3.61720616695724        1.15495371244548
C            4.96047190490955       -1.48969502621757       -0.16057560687955
C           -0.06416393257008       -1.24497551356962       -0.63566456532508
C           -3.87739086915466        3.04735924548967        0.58515394612983
C           -4.48477595974362        2.82066437163043        1.96886697123966
C           -3.39012955925227        4.48862524676066        0.49008818922794
H           -4.67001578121378        0.92660425313125       -1.27446608698264
H           -6.86247169246931        0.24081201638461       -1.76529574283328
H           -7.18004888146963       -1.18914843468290       -2.77793424308221
H           -5.67612691136655       -0.26231502520739       -3.00498756976865
H           -4.88866717053034       -3.78852114192428        2.38903617431766
H           -5.28702709962298       -5.02170140726627        1.16851941937937
H           -3.60972158329356       -4.44448939440433        1.32665589394526
H           -3.08558862587448       -2.26847586459176        2.10737121870392
H           -2.16992253157445       -0.02765525322306        2.04900462285742
H           -2.92108972456666        2.50248718788260       -1.95072616577720
H           -1.53212268109305        3.30750995695447       -1.22118052184274
H           -1.80673683975722        0.33392348221645       -1.56181150050581
H           -1.04317725749580        1.37532013382756       -2.76505377403091
H           -0.72014798848880        1.55171449811207        0.75307101600244
H            0.68367786923351        2.03620013392229       -0.97427483765487
H            2.11769714593051       -0.62974944296253        0.73611651325677
H            2.31138101041916        1.01237053926039        0.10705975205873
H            2.76603113810823        0.07621352921746       -2.16670582968382
H            2.66980305754370       -1.56106421223342       -1.49964613870212
H            4.62709127365894        1.56614436817961       -1.55564783786013
H            6.93147182921038        1.75445677606306       -0.78382306884509
H            8.65435381752793        1.79863202171388        0.81978907421522
H            9.20333418818798        1.13026977860537       -0.74420258564644
H           10.03922081773323        0.67840316435118        0.76323581503598
H            7.03935517404870       -4.24365203014907        1.65621405459535
H            5.42493356955916       -3.50574979414809        1.80058864590668
H            6.00416134292612       -4.09360337725612        0.21470652478198
H            4.39129375903280       -2.39284194318446       -0.00135610717265
H           -0.23223286640177       -1.56217659293596       -1.67185896572631
H           -1.03506678906396       -1.16966361363588       -0.13683413438009
H            0.51874688072779       -2.00953774500409       -0.12814692901658
H           -4.67371025519780        2.90323678170804       -0.15488892697190
H           -3.73147644592385        2.97816279162348        2.73282845946642
H           -4.87802379934949        1.81272671481966        2.06583136594100
H           -5.30256670180215        3.52166807935226        2.12670672794973
H           -2.58593651157141        4.65237720916413        1.20186732766773
H           -3.03782494205931        4.72233068130112       -0.50870887196919
H           -4.20957225886679        5.16209911248906        0.72380758538707
H           -0.57335320176327        2.81645667856882        2.66972128499694
