72
 energy: 53.961830435801 xtb: 6.6.1 (8d0f1dd)
N           -1.24923746230290        3.01161002900302        1.83738980353296
C           -1.74284398034734        1.84375936123868        1.59899842927469
C           -3.00606366241257        1.63433195754705        1.00344407303989
C           -3.51052989331468        0.28351713743206        0.86004745339009
C           -4.46756459227273       -0.03609703783114       -0.12668749592630
C           -4.95885328267516       -1.31139287963358       -0.28837698612113
O           -5.87638923380900       -1.68978320985025       -1.22841330133342
C           -6.49190214646791       -0.70211835381458       -2.01192290235642
C           -4.50279951656077       -2.35591799007076        0.54712977473336
O           -5.04012386960269       -3.58734908820232        0.29533281327582
C           -4.68277409368889       -4.65557067098748        1.12870884012508
C           -3.57585980090790       -2.06072555340964        1.53057736704961
C           -3.09231120262136       -0.77214295494199        1.68499990776715
C           -1.16976461125884        3.15677605345522       -2.47420432265750
C           -1.00954711029222        1.84452537211617       -1.85373317324543
C            0.28660798084017        1.59211096174355       -1.22337391185377
N            0.62015473581498        0.43826758772166       -0.64021438543306
C            1.96104663631438        0.23923831118574       -0.15186936276473
C            2.87238385743136       -0.41670296737219       -1.21172982519771
C            4.30986544949191       -0.37376332162150       -0.77407175522861
C            5.07044915600574        0.75895792209102       -0.99335414557237
C            6.39216274568208        0.82127549339440       -0.57485506132698
C            6.97488854101131       -0.25315948678291        0.07239174186689
O            8.25626877949739       -0.30363686240665        0.52380631463913
C            9.08023271370769        0.82076039115858        0.34286496477222
C            6.20705794055846       -1.41957983448917        0.29842468019578
O            6.86559006721580       -2.42812109305598        0.93034421387188
C            6.19207947724304       -3.63831832048658        1.16486398321822
C            4.88973704645249       -1.46070592139071       -0.12143510866671
C           -0.23143322252919       -0.71530112457846       -0.76591986203531
C           -3.95107815506979        2.80249498079262        0.81683495560110
C           -4.40855052504591        3.30290467937698        2.19543913543033
C           -3.33255598277497        3.95992175533771        0.03376131709729
H           -4.80518581995268        0.74267210594423       -0.78992134260441
H           -6.99452201659132        0.05024681243953       -1.39515821739281
H           -7.23405200931875       -1.22786630484703       -2.61174228874578
H           -5.77859787194722       -0.20629757750423       -2.68019179649181
H           -4.94763147559541       -4.46453179751116        2.17434172552972
H           -5.25360021787724       -5.50809899184117        0.76379164742030
H           -3.61256695868373       -4.88390457342708        1.06285658999162
H           -3.23217989946770       -2.83380459634100        2.20277236473768
H           -2.41285282918946       -0.58565332761770        2.50316698750300
H           -1.87559640368151        3.31125123046105       -3.26744946317032
H           -0.51003003094310        3.96436771762831       -2.22009575123452
H           -1.78477583142164        1.70696991060168       -1.02160981842769
H           -1.26564395198274        1.04085462048885       -2.55385903399227
H           -1.15862019866407        0.92310168612041        1.78343955204877
H            0.97482438678951        2.41423314152963       -1.09549933415461
H            1.92630792138727       -0.38887840934304        0.74127122657261
H            2.38559544706701        1.20663384801348        0.12398408218259
H            2.76115354959357        0.13336634449692       -2.14879486350261
H            2.55852962658466       -1.44806037941534       -1.37960807038362
H            4.64181292972337        1.60665687475940       -1.50663559545521
H            6.96000446386017        1.71739530941123       -0.76699256851859
H            8.67937651561579        1.70302168792202        0.85292415921595
H            9.22664189990513        1.04912591968369       -0.71802842868074
H           10.03768248035405        0.55378100635938        0.78734582512588
H            6.91622115155874       -4.28210689347817        1.66172921871737
H            5.32477790029138       -3.50063928571019        1.81943328375601
H            5.87200002672423       -4.11128813980171        0.23027433707023
H            4.29765590863782       -2.34768662975070        0.04436066180338
H           -0.33174288659987       -1.02309915416628       -1.81159185555597
H           -1.22861921173968       -0.50293372408232       -0.37356432403945
H            0.19607778347604       -1.53858123896825       -0.20019158593743
H           -4.84377821902874        2.46189640410222        0.28547783867579
H           -3.55204914312458        3.67201839566591        2.74992861850880
H           -4.87809051155133        2.50691205177880        2.77419139011956
H           -5.12917681235362        4.10956029299901        2.07790994775522
H           -2.43789993372340        4.29892375937509        0.54548482656046
H           -3.06568980302123        3.66484920840404       -0.97863354497016
H           -4.04073057569374        4.78136951891596       -0.03040719933659
H           -0.31587614603619        3.00651112998415        2.24365582261382
