72
 energy: 41.266029433563 xtb: 6.6.1 (8d0f1dd)
N           -1.44138498882961        3.00069554018343        2.09288673195565
C           -1.60021597349121        2.05281221898296        1.25815176949762
C           -2.77509310829529        1.94212004476627        0.37615386443705
C           -3.32456192913363        0.53140822588138        0.42347382443623
C           -4.34540988867636        0.15227589334691       -0.45463879171702
C           -4.89131768939165       -1.11443533155242       -0.45137881817056
O           -5.85457834610512       -1.55616784082252       -1.31131914933764
C           -6.43213481089326       -0.63772919160207       -2.20112434961026
C           -4.43869183818055       -2.07297080713945        0.47925021833165
O           -5.00939448068844       -3.30434773670913        0.37389393842725
C           -4.66558884799649       -4.29001691948136        1.31196886613719
C           -3.49111201589565       -1.68699112415298        1.40782259815642
C           -2.95578677777910       -0.40295900232746        1.38969251114956
C           -1.91820231635342        2.63432808250892       -1.37705028024532
C           -1.15864451859408        1.38640898242390       -1.73983990064740
C            0.11615617904557        1.32692008104552       -1.01004083531483
N            0.64879763095400        0.13403810797731       -0.57518930312809
C            2.00789313118744        0.06848724562553       -0.15316165854548
C            2.93269957911284       -0.49164117994844       -1.25862683363991
C            4.35813263033349       -0.41250810716274       -0.82589944092559
C            5.09375561299572        0.73825341152839       -1.02874327477517
C            6.40414552058734        0.83286244966213       -0.58709890000336
C            6.99913429870458       -0.22937521883499        0.06927310476862
O            8.28314084461939       -0.25019997466387        0.53388159551813
C            9.07883426511699        0.88857580747779        0.33035396578477
C            6.25354297332668       -1.40865029701675        0.29283667767339
O            6.92697694796315       -2.40394260246997        0.94120127356141
C            6.27170982316554       -3.62421320871091        1.15951211780725
C            4.94589558528054       -1.48174210703721       -0.15079116368723
C           -0.10174095053416       -1.09808777184803       -0.67516479358784
C           -3.89386577252083        2.97078281238997        0.61106093215944
C           -4.45660606657627        2.93844201315399        2.03640117808464
C           -3.38312050653353        4.38435110890374        0.33868753594874
H           -4.70260688357750        0.87713161145106       -1.16518792182483
H           -6.89948176239831        0.19685192282695       -1.66745443745477
H           -7.19855311377157       -1.19779736922087       -2.73512254375851
H           -5.70049000681146       -0.24639635580471       -2.91699410716620
H           -4.90050563734031       -3.97648113951361        2.33464108831429
H           -5.27279700070176       -5.15723857662495        1.05692497310967
H           -3.60572412712784       -4.56156841280922        1.25044125063598
H           -3.13436546904034       -2.39715487048260        2.13856672697435
H           -2.23763904431986       -0.15721737695674        2.15716342821467
H           -2.66409303970840        2.82161303166603       -2.15641104359182
H           -1.23273663917421        3.49066784554163       -1.30189559116382
H           -1.79334558920713        0.60783457704531       -1.37625594764299
H           -1.10768715243979        1.27363829693569       -2.85217682023918
H           -0.82631145877105        1.30243681014632        1.06210962488169
H            0.79287729454736        2.15488126010013       -1.05619897098873
H            2.09983563213479       -0.54976623592057        0.74838388358079
H            2.33911731613834        1.07226208521009        0.11056872168090
H            2.76637786502259        0.09778053353404       -2.16110738351215
H            2.64265619507613       -1.52497130515230       -1.46779227830915
H            4.63939841189630        1.57365730832201       -1.53941320046199
H            6.94765915833855        1.74540905265043       -0.76985875080221
H            8.66145002376258        1.76995135256730        0.82979824404971
H            9.20935845838962        1.10655832324778       -0.73550979250925
H           10.04598046959549        0.64647568877878        0.77011512881558
H            7.00245399024482       -4.25916388348613        1.65907470439603
H            5.39513918736559       -3.50305933438505        1.80477987143116
H            5.96678025830654       -4.09511115145597        0.21846206212334
H            4.36614403313615       -2.37745595005089        0.00940369676135
H           -0.25876739004676       -1.41282915605523       -1.71521266631602
H           -1.08351025803781       -0.99065213768070       -0.20585572415360
H            0.42103960206289       -1.89337377835807       -0.14686802832540
H           -4.72935068081353        2.76346095138824       -0.07225653147591
H           -3.67007818361111        3.16714811890889        2.74519083132541
H           -4.88147810695593        1.96692411735010        2.28471942011256
H           -5.24685495850954        3.68266276046912        2.12207230216340
H           -2.55146590562776        4.57742635861466        1.01195291130097
H           -3.04592799784898        4.48202457513819       -0.68438614969379
H           -4.17141132481298        5.11119820594970        0.50976151229386
H           -0.52013912942676        2.87928366819506        2.50431240684209
