72
 energy: 64.335795621796 xtb: 6.6.1 (8d0f1dd)
N           -1.34523395218251        3.07140656298802        1.97683978231326
C           -1.68115907311411        1.95316958651529        1.41811993091266
C           -2.90420007172417        1.75794865148282        0.72788698508112
C           -3.41379963612303        0.42205587463739        0.61102223075835
C           -4.39600989463603        0.06848262863092       -0.33066514484042
C           -4.92213776198228       -1.19997473616214       -0.39022832919804
O           -5.88142016392869       -1.61598899843259       -1.27513145504763
C           -6.46196950572206       -0.66236958281036       -2.12135531835654
C           -4.46652516634798       -2.19464625766000        0.50018364015135
O           -5.02908045439083       -3.42882149045414        0.34019768843188
C           -4.67004201100627       -4.45084270997668        1.22855024636452
C           -3.52344164314508       -1.84878121090108        1.44897091703556
C           -3.00407748179331       -0.57226987184794        1.50049588848754
C           -1.59992330252879        2.98651806385752       -1.85422474892138
C           -1.08027727260894        1.60383509389624       -1.76176111279223
C            0.22192615611996        1.45205880146735       -1.13074797010885
N            0.66170651150837        0.27595857532735       -0.63378374234977
C            2.01029263126023        0.14537344467864       -0.15667858207444
C            2.91707447155916       -0.45695991708684       -1.24037317976617
C            4.34661159040762       -0.39610821918155       -0.80027380897474
C            5.09237036392786        0.74653754457219       -1.01112400596818
C            6.40693956386676        0.82440053744921       -0.57527310841161
C            6.99593231935020       -0.24673786837406        0.07456830529051
O            8.28033811445885       -0.28267780442872        0.53540565187361
C            9.08352717239760        0.85439858397324        0.33993475584050
C            6.23752313366646       -1.41983084963253        0.29902524938068
O            6.90129141546864       -2.42044006081185        0.94206007596543
C            6.23374223345732       -3.63276730548918        1.16353787630596
C            4.92562835885293       -1.47521368342403       -0.13598073775692
C           -0.14632309996177       -0.92775962417210       -0.72658298721982
C           -3.92112389347485        2.88279960099792        0.68170359423570
C           -4.43570179125987        3.10153422632145        2.11599594320363
C           -3.37829617145339        4.22428848994806        0.18343891003496
H           -4.74680020875755        0.81991534158958       -1.01912537713205
H           -6.94085094001619        0.14187120606981       -1.55088017089935
H           -7.22173965746730       -1.20351162638674       -2.68360594330521
H           -5.73109133858589       -0.22807854927286       -2.81404650337832
H           -4.91495391055700       -4.19435523069190        2.26589605076010
H           -5.25851635169735       -5.31778495431242        0.92992905757454
H           -3.60426258273624       -4.70123023321023        1.16257472711567
H           -3.18625823876064       -2.57227787579069        2.17056886824763
H           -2.31890443039288       -0.32861945182558        2.29112752564975
H           -2.34267405401960        3.10725818087307       -2.60248310872972
H           -0.90457733698531        3.77504434047504       -1.67122129966681
H           -1.80991311287830        1.07181643470636       -1.16424596484987
H           -1.13302439152663        1.12226248992475       -2.72821602517826
H           -1.00145279589005        1.08547029014121        1.42386181195844
H            0.92552111878734        2.26682927877759       -1.12948410664910
H            2.02440796183158       -0.47823476357186        0.74109334321871
H            2.37206596858405        1.13458565737796        0.11406827384899
H            2.77658797551129        0.11796743139486       -2.15795118085021
H            2.61347062404736       -1.48774324863570       -1.43008963052823
H            4.65122795943724        1.58788466859843       -1.52390668807115
H            6.96306128816623        1.73087037887502       -0.75742985186170
H            8.67029581586051        1.73601296274970        0.84241190132006
H            9.21823404015471        1.07767510008438       -0.72446685988438
H           10.04900201116127        0.60551036607748        0.78040415509060
H            6.95799043639317       -4.27645246510241        1.66175454769252
H            5.35939651021088       -3.50052448215434        1.80956399550477
H            5.92144310499426       -4.09890180129352        0.22272481874740
H            4.33620039633207       -2.36466600461283        0.02217836339648
H           -0.29428308743306       -1.24230346458022       -1.76829647051549
H           -1.13831452895196       -0.77545226295516       -0.28595632512252
H            0.32087320198941       -1.74627789978467       -0.17903645755985
H           -4.78214751763183        2.60771283612209        0.05983230502944
H           -3.60728588023893        3.39398306738651        2.75174450228724
H           -4.87506989286543        2.19004924111973        2.51420135611697
H           -5.19200156325104        3.88133365040613        2.11887741351189
H           -2.51117591999821        4.47630573622525        0.79220955840490
H           -3.06806803106018        4.14585857029902       -0.85342852455220
H           -4.12552798421147        5.01985366813736        0.25306524900894
H           -0.43465038243229        3.07979513884508        2.42946352609351
