72
 energy: 54.506558560682 xtb: 6.6.1 (8d0f1dd)
N           -1.24363108085603        3.00609112641113        1.83360774712790
C           -1.73967768864366        1.84115179187970        1.59345787260224
C           -3.00501176677119        1.64839610969714        0.99802557940195
C           -3.50139350024455        0.30061250183329        0.83064751681078
C           -4.46060126912840       -0.02686875583913       -0.15388986143174
C           -4.95428052761138       -1.30516808453258       -0.30059408972777
O           -5.87913828954704       -1.68818685940364       -1.22991892191586
C           -6.49401573258537       -0.70187613424112       -2.01615056967088
C           -4.49616852201667       -2.34486410402974        0.54044861450021
O           -5.04028698073758       -3.57948652783533        0.29959120945776
C           -4.68220439045739       -4.66197587795231        1.11934305411400
C           -3.55996935647521       -2.03543371148290        1.51168737377689
C           -3.07166129959296       -0.74817392054009        1.65088537787813
C           -1.23522714613521        3.17635121256278       -2.38670300173827
C           -1.01566536367551        1.82972125347645       -1.84597444886833
C            0.29879247021735        1.58954540380162       -1.24861600270461
N            0.61643784664689        0.44604398795624       -0.62742017333463
C            1.96219324926217        0.24006938494219       -0.15155097851668
C            2.87122355961116       -0.41597719627626       -1.21127485554803
C            4.30954043253608       -0.37284814901472       -0.77384744915712
C            5.07184778531605        0.75875641402180       -0.99335082992706
C            6.39370681232743        0.81933479243646       -0.57404257795033
C            6.97550477779188       -0.25531181004129        0.07384149076877
O            8.25750011833037       -0.30844934443153        0.52486974210212
C            9.08171704421053        0.81545561150431        0.34349007243587
C            6.20705252679346       -1.42129213359399        0.29845579296525
O            6.86421446904974       -2.42987003732851        0.93112886436180
C            6.18927618252819       -3.63937392880861        1.16507784644181
C            4.88980149775660       -1.46047130626570       -0.12179857550597
C           -0.22803897175491       -0.71875757881476       -0.76064894949152
C           -3.95030361787371        2.81000882460836        0.80963136931148
C           -4.40829858219881        3.31395995485465        2.19063724146476
C           -3.33562371061372        3.97685719094014        0.03895234538300
H           -4.79345807979056        0.74811545278034       -0.82583923698937
H           -6.99502689146180        0.05241735546085       -1.40046837396958
H           -7.23645920340677       -1.22914472183189       -2.61349473775434
H           -5.77911543136879       -0.20724111125984       -2.68276933068805
H           -4.94738251361422       -4.48257487585979        2.16665478050129
H           -5.25054088046265       -5.51637587692925        0.74743451465852
H           -3.61242709050008       -4.89222042004454        1.05112487842358
H           -3.21915327076302       -2.79051547900534        2.20215872000811
H           -2.39369405773043       -0.54748276293247        2.46590448483121
H           -1.94474273354425        3.31357256293825       -3.17270214363864
H           -0.56780817400226        3.98701740523430       -2.16503184994555
H           -1.77731544147610        1.63013500213521       -1.02936344567469
H           -1.24806339493157        1.04182642354142       -2.58409167388371
H           -1.16609774123321        0.91705114021880        1.80727473503227
H            0.98579378259980        2.41365053804880       -1.12003156410126
H            1.92252171946268       -0.38646301016604        0.74093989419419
H            2.39172950135326        1.20488581617858        0.12090394035207
H            2.75822348823199        0.13393965338535       -2.14825321249598
H            2.56100062148827       -1.44861718816671       -1.37898756119730
H            4.64396773560183        1.60823660110711       -1.50485485439757
H            6.96127459623204        1.71512823119169       -0.76801673672854
H            8.68087221331046        1.69756274414578        0.85365660357985
H            9.22710048701365        1.04409925634097       -0.71764363895404
H           10.03951187059613        0.54946483589890        0.78747097238291
H            6.91125934645278       -4.28518563966208        1.66198384422651
H            5.32174686166928       -3.50066748103023        1.81972023702246
H            5.86784157214183       -4.11094114133423        0.23013936560795
H            4.29592551236030       -2.34609433013820        0.04427856578091
H           -0.33039687299916       -1.01853182289603       -1.80929864664419
H           -1.22778838760130       -0.51241574159900       -0.36948481406477
H            0.20158506136149       -1.54636389038382       -0.19913291283750
H           -4.83880068058556        2.46192535549544        0.27420067855176
H           -3.55044126931795        3.68942008890059        2.74145231523749
H           -4.87255346612994        2.52177335644434        2.77988581565479
H           -5.12374250000488        4.12759088952499        2.07310026208001
H           -2.44335790199044        4.30507868187126        0.56059580438286
H           -3.04827581738819        3.69380263022074       -0.97310200213428
H           -4.04597633753044        4.80537437429601       -0.01632210968272
H           -0.31565221974853        2.99902064031224        2.24997513814773
