72
 energy: 55.860690399433 xtb: 6.6.1 (8d0f1dd)
N           -1.25561395691919        3.04120316120341        1.84765511833950
C           -1.73272570839614        1.88718029809942        1.52556117401110
C           -2.97202009755297        1.68549040137325        0.89006192442436
C           -3.47024446983495        0.34118962124595        0.74451957329393
C           -4.43856739454993        0.00518465553836       -0.22380744865096
C           -4.94526107982042       -1.26847671494083       -0.33644907921383
O           -5.89050196521162       -1.65990881536894       -1.24254982261827
C           -6.48676533414929       -0.68403407128005       -2.05451749117519
C           -4.48525662369520       -2.28969300216015        0.52361797128050
O           -5.04099787562948       -3.52318075281663        0.32078980813048
C           -4.67587542234818       -4.58036607194835        1.16521006705275
C           -3.54468534446710       -1.96854194673171        1.48533150873591
C           -3.04479527380089       -0.68571372498128        1.59071151625008
C           -1.36570979587848        3.13649255689335       -2.18310701134544
C           -1.03846953557509        1.75762011501316       -1.80257296060509
C            0.27865522241472        1.51750970434925       -1.23553785202783
N            0.63710964606181        0.37530959821773       -0.64593320238986
C            1.97999625177533        0.20369673658098       -0.15650564993020
C            2.88839483614104       -0.43345002811666       -1.22218892798343
C            4.32289699484403       -0.38201013192785       -0.78011760242474
C            5.07829725288315        0.75354662443620       -0.99934860164075
C            6.39825179819361        0.81866531417277       -0.57687884701403
C            6.98416555375828       -0.25314877668384        0.07312392778505
O            8.26554976225932       -0.29660736070850        0.52807857332880
C            9.08463116547479        0.83062039256168        0.34080650182181
C            6.22020559871149       -1.42195846716198        0.29928411971405
O            6.87761814317228       -2.42690183845282        0.93785453468382
C            6.20402720099163       -3.63707967330688        1.16703252090419
C            4.90433671133842       -1.46683368003451       -0.12583928669943
C           -0.19044710393440       -0.80076618880700       -0.75426860013424
C           -3.94211122005861        2.83706435456918        0.75541449557121
C           -4.41434863228370        3.23026888043008        2.16322914882925
C           -3.35458690848913        4.07672005010640        0.07602287669642
H           -4.77964742389017        0.77224717330114       -0.89970995613220
H           -6.97921631588469        0.09072054747795       -1.45681178244539
H           -7.23577674638546       -1.21630981374666       -2.63863830583857
H           -5.76049250068893       -0.21668103476919       -2.72974794393436
H           -4.93045409119013       -4.37755020698573        2.21160635320837
H           -5.25152059265171       -5.43723558771926        0.81714308932094
H           -3.60735080513724       -4.81574187648306        1.09402222308651
H           -3.20863790005845       -2.70840082042194        2.19267664795140
H           -2.36792989373726       -0.46447224018188        2.40005696619149
H           -2.09284682720953        3.26692234395998       -2.95110376437466
H           -0.67700754468034        3.92148005069615       -1.95154615881425
H           -1.81253003303552        1.45743657401716       -1.07129289452286
H           -1.21207395888369        1.08046653159905       -2.62932268152870
H           -1.16041244767637        0.97874154296239        1.70318277668738
H            0.95045451320610        2.35668863936777       -1.11915707280342
H            1.95834764459412       -0.42199050759437        0.73780394475422
H            2.39154176323801        1.17495657297395        0.11922195092960
H            2.76612122832664        0.12850905778079       -2.15119012614787
H            2.58205061604598       -1.46558204347622       -1.39887525856362
H            4.64849434664558        1.60096434629269       -1.51281230421122
H            6.96392265147224        1.71636611575362       -0.76749673751097
H            8.68035534095420        1.71285409670768        0.84812863927655
H            9.22591763317353        1.05566051640380       -0.72164797008241
H           10.04500899361209        0.56990317511910        0.78335883781441
H            6.92475174284222       -4.28435168276253        1.66498577657945
H            5.33382520107254       -3.49818143958326        1.81751483498096
H            5.88637473654742       -4.10485270957692        0.22906714464421
H            4.31268539884550       -2.35431002270109        0.03709529959447
H           -0.31797272869614       -1.10793827844897       -1.79676692444601
H           -1.17990729374649       -0.60616824902121       -0.33831941203530
H            0.24583920199827       -1.62525585412631       -0.19308523005090
H           -4.81993834633811        2.50912408764957        0.18801605155139
H           -3.56377379426772        3.57324868478720        2.74153360464838
H           -4.86924371338143        2.39207656591957        2.68689765531663
H           -5.14526517949174        4.03320363826979        2.09338317286917
H           -2.46935667728723        4.38671531546527        0.62074221329058
H           -3.05927887001157        3.86532704973109       -0.94594300342361
H           -4.07810641431265        4.89430925206798        0.07844945339308
H           -0.35832265150116        3.01393900279909        2.32127213455389
