72
 energy: 6.956417650082 xtb: 6.6.1 (8d0f1dd)
N           -1.46585879024176        2.91453347854904        2.16994842354987
C           -1.57790688772224        2.09392104197804        1.21220057239658
C           -2.73763120553409        2.01051288575458        0.26651337167261
C           -3.30544219966028        0.58237143486283        0.36745138678604
C           -4.32365304052670        0.19418014211845       -0.50778795637760
C           -4.87213565297409       -1.07320564835971       -0.48472140543723
O           -5.83841236375684       -1.52677983801913       -1.33375293340617
C           -6.41542080059096       -0.62517336082826       -2.24156133538936
C           -4.42058783828912       -2.01577820508214        0.46400154695741
O           -5.00173128389979       -3.24467744979378        0.38944963423036
C           -4.66498774103265       -4.20850935236801        1.35320943060006
C           -3.46158394565033       -1.62153945955279        1.37635924300412
C           -2.92438317031231       -0.33566768103090        1.33870982058415
C           -2.05727220759920        2.47144646848353       -1.23910589928896
C           -1.20662629241473        1.29856474691209       -1.70911305721087
C            0.06417940756844        1.24321230513733       -0.95453192649668
N            0.64929344590251        0.05469414063321       -0.56550555234259
C            2.01233790729115        0.02632374888480       -0.15511609093696
C            2.93761689945922       -0.51346072939453       -1.26761957259382
C            4.36167705210894       -0.42236235559180       -0.83279375552736
C            5.08711193473351        0.73589599822171       -1.03520596899632
C            6.39667038598730        0.83724343149298       -0.59283579031924
C            6.99828270007261       -0.22053843257900        0.06474939242204
O            8.28052009410129       -0.23314478645573        0.53168141595917
C            9.07489695039289        0.90572570960254        0.32560845571905
C            6.26039809622837       -1.40498982056433        0.28822357001630
O            6.93829794697753       -2.39521365049025        0.93725834921410
C            6.29044639777625       -3.62007489396770        1.15655548116336
C            4.95537905704616       -1.48710057970769       -0.15800255740615
C           -0.07800070029335       -1.18588142154178       -0.65130834410813
C           -3.88097826508353        3.01366615354895        0.58828836141671
C           -4.47102839303690        2.86561098930281        1.99282941746858
C           -3.38624622289004        4.44744792641574        0.42830707251958
H           -4.68131762862036        0.90698751746276       -1.23092504846284
H           -6.87678629770456        0.22387334435659       -1.72610980377614
H           -7.18664552331787       -1.19217142881113       -2.76104031318001
H           -5.68488778861337       -0.25522913443217       -2.96955497610919
H           -4.89355027888904       -3.86403326858078        2.36704273108767
H           -5.28112712751193       -5.07647980054159        1.12333173955620
H           -3.60797037173309       -4.49115587763796        1.29558782854697
H           -3.10579921133011       -2.31904214413811        2.12028157262327
H           -2.19619046328776       -0.07928068574340        2.09300589209006
H           -2.81921268726119        2.62739774322641       -2.01964859820672
H           -1.41620417865296        3.36763387590235       -1.23002926267471
H           -1.80380636370257        0.43508322710341       -1.48898829042794
H           -1.08179007475653        1.34892367698027       -2.81342764571255
H           -0.75804495198637        1.44714045040412        0.87365943503635
H            0.72682839746723        2.08375379803941       -1.00797831880473
H            2.11118788216452       -0.59609451185464        0.74190478968507
H            2.32314744864504        1.03789923368310        0.10718472848273
H            2.76709039688911        0.08469589647066       -2.16381285374909
H            2.65976848332930       -1.54668649896432       -1.48639969440863
H            4.63233604564056        1.56988791463897       -1.54890744980815
H            6.93805282282338        1.75087045955922       -0.77793945905973
H            8.65699518710635        1.78733133324785        0.82392318038414
H            9.20556437360519        1.12106594583587       -0.74062771445247
H           10.04189095999720        0.66600251479369        0.76614265128609
H            7.02462521335387       -4.25007647488672        1.65704940499571
H            5.41299814326811       -3.50478085964537        1.80192896384779
H            5.98926544922496       -4.09400084906553        0.21585194323860
H            4.38146016003049       -2.38676436501954        0.00241625747986
H           -0.24296819540639       -1.50218343321051       -1.68915799650829
H           -1.05378062708721       -1.09825825711113       -0.16401730459135
H            0.47999243708291       -1.96384852959387       -0.13546833280840
H           -4.69657206589999        2.84659442001328       -0.12597430813825
H           -3.70622966556861        3.05392414448206        2.73716088452770
H           -4.87941605064738        1.87149170904191        2.15327142327928
H           -5.27867307558964        3.58549586933387        2.12290962228440
H           -2.57225441031288        4.62175513710541        1.12703661087627
H           -3.03808365819939        4.62852335281855       -0.58077904288888
H           -4.19438141474285        5.14181349821318        0.63767029638113
H           -0.54740361915124        2.85138662461592        2.60641119863273
