25
 energy: 0.000000000000 xtb: 6.6.1 (8d0f1dd)
C            3.23720163006194        1.16630919979326        0.08434469647475
N            2.29877817382611        0.07527477071623        0.03981603040599
C            2.58028210190900       -1.21425402444508        0.03006176031096
N            1.43813958087363       -1.93419271955128        0.00098261760884
C            0.39035688448383       -1.05887472636071       -0.00790371836672
C            0.93510056364412        0.21347819449412        0.01709077491437
C            0.09450143893243        1.40504303904423       -0.00410947031874
O            0.49712751527797        2.54126714362870       -0.00342325688240
N           -1.25076640035757        1.06271879480407       -0.03085478223738
C           -2.21907211982101        2.15522099834493       -0.05001256985998
C           -1.81739487048744       -0.20012725993278       -0.04692818574614
O           -2.99983886758376       -0.37846417018721       -0.07008878229737
N           -0.92618586207120       -1.30210215599479       -0.03682761578324
C           -1.46982264913417       -2.64643102187190       -0.06029820460571
H            3.71247264356769        1.21471455160235        1.06488849150277
H            4.00791497605742        1.03430808813993       -0.67357694370751
H            2.69910007168542        2.09770118228144       -0.09130154882931
H            3.56654120610678       -1.63682992603973        0.04233140067262
H           -1.67107961066214        3.09322851271934       -0.02552706933167
H           -2.82428953597071        2.09428624779827       -0.95318082946668
H           -2.87644029173232        2.07745725625962        0.81450067533302
H           -1.17061996399332       -3.19584890659852        0.83242232437030
H           -1.14560257411436       -3.17511610292205       -0.95688275822323
H           -2.55549792440841       -2.55659984320617       -0.07459039797972
H            1.38130855184625       -2.94313852034425       -0.01389874181052
25
 energy: -3.248782897058 xtb: 6.6.1 (8d0f1dd)
C            3.24450473224869        1.17204498776587        0.09265370813744
N            2.30803220062007        0.09102890283278        0.03918787519812
C            2.60422399270734       -1.23519321158091        0.03555943641511
N            1.43589111811322       -1.94712004683101        0.00097178857924
C            0.40092562559326       -1.06595764633753       -0.01469404937511
C            0.92884906996401        0.21471819433567        0.00932727137777
C            0.09320148352744        1.38622627738168       -0.01565210721722
O            0.49199864050642        2.55091301314440       -0.01581034352235
N           -1.27464462719601        1.04664837390566       -0.01920487445490
C           -2.23326291297804        2.16210740055757       -0.02892368179591
C           -1.82503097508779       -0.21299297259130       -0.05409450924475
O           -3.01926553697462       -0.40481893567516       -0.09049608213820
N           -0.92903561419219       -1.31244218461729       -0.04929851733174
C           -1.45751884041874       -2.65946096257472       -0.07378649729428
H            3.72230738559703        1.21341458009875        1.07504919748480
H            4.01391660028310        1.03938033087715       -0.66943253670132
H            2.69949980922185        2.09777367003996       -0.08000875584404
H            3.58420094854385       -1.65670993417984        0.05615462297813
H           -1.65066677642058        3.07875103992088       -0.09978881747613
H           -2.88818544573945        2.05524398639506       -0.88999598262869
H           -2.89387250792477        2.30448476853127        0.86948154520265
H           -1.15011766463667       -3.20966164023224        0.81796490961502
H           -1.12606103536214       -3.18964385412523       -0.96905274948999
H           -2.54331111189290       -2.57822517716091       -0.08738330189654
H            1.37563610983386       -2.95148035770849       -0.01169365242984
25
 energy: 6.868273807404 xtb: 6.6.1 (8d0f1dd)
C            3.25185937590087        1.17211658778719        0.10464954293765
N            2.31289495529338        0.10470345729290        0.03663106664130
C            2.62597819419717       -1.25673818258621        0.04544666129531
N            1.43236698351323       -1.95808195386129        0.00224059501277
C            0.41233965964683       -1.07676707410993       -0.02524653651974
C            0.91603707566509        0.21481773354713       -0.00167150860406
C            0.08809973263489        1.35815848704960       -0.02150114717621
O            0.47615890477204        2.54446403805284       -0.03421637353710
N           -1.31597351220919        1.03289036156114        0.01285232429457
C           -2.25192868286256        2.18289637488360       -0.00028322669832
C           -1.83271111284862       -0.22886810935904       -0.06664961822281
O           -3.03057562632642       -0.44749101346205       -0.13151860302174
N           -0.93169281160458       -1.32446762958007       -0.07137957134847
C           -1.43664618758569       -2.67831466950953       -0.09592813575984
H            3.73543085935764        1.20588510801954        1.08745629360023
H            4.02200262620819        1.04595171822685       -0.66116330934849
H            2.70393757193241        2.09618042348914       -0.06070810390327
H            3.60028583220063       -1.67335514976584        0.07862892904255
H           -1.61935091304909        3.06444834400223       -0.23464896754577
H           -3.00115345071599        1.97932491479679       -0.77799398142211
H           -2.88384425690102        2.64666836202845        0.95227047980937
H           -1.11828507775096       -3.22938027964159        0.79456736416638
H           -1.09609495804922       -3.21112521987317       -0.98890463816263
H           -2.52318089204045       -2.61481643105400       -0.10845054586748
H            1.37626037855758       -2.96007159576252       -0.00744509351480
25
 energy: 21.146098270723 xtb: 6.6.1 (8d0f1dd)
C            3.25774783718542        1.16423813296468        0.11250727508052
N            2.31351188879991        0.10415794778249        0.03380643418979
C            2.63350554672342       -1.27126147399753        0.05561923805163
N            1.43244869724745       -1.96678709023678        0.00732440427315
C            0.41822329455170       -1.08721710920369       -0.03377067521959
C            0.90847668869561        0.21100282122380       -0.01070522032551
C            0.08296718940516        1.34568638552579       -0.02306367735201
O            0.46557256655532        2.53625520542618       -0.05497652326058
N           -1.34734633500762        1.03838162687025        0.04475634111902
C           -2.26824056431895        2.21697206368290        0.02381701554872
C           -1.83812477769620       -0.23515255797865       -0.08263080698615
O           -3.03282684621200       -0.47980798147369       -0.17590932924908
N           -0.93088461091561       -1.33039779175903       -0.09279879509159
C           -1.41547010732337       -2.69369121190873       -0.11530293815895
H            3.74631960628442        1.19059559059486        1.09427506582436
H            4.02852365422155        1.04540908905344       -0.65542312213974
H            2.71348545553260        2.09221980966145       -0.04469996526681
H            3.60812127563826       -1.68457890793257        0.10373964944115
H           -1.62665376191109        3.05747050870279       -0.35396770988667
H           -3.10992693053974        1.92186617912732       -0.64936551342038
H           -2.85537995397764        2.90795297189815        0.99900376304855
H           -1.08597485244290       -3.24192819124287        0.77473933665040
H           -1.06644648832091       -3.22877778018156       -1.00511690184680
H           -2.50316568040914       -2.65358354818779       -0.12687677600401
H            1.38375187617049       -2.96999608623906        0.00205332712785
25
 energy: 30.882381652238 xtb: 6.6.1 (8d0f1dd)
C            3.26251919376238        1.15222937178595        0.11406334851141
N            2.31294233014833        0.09440206918243        0.03093043248774
C            2.63146253124611       -1.27777924368132        0.06260381229712
N            1.43579278139356       -1.97232583661031        0.01431906600094
C            0.42012817092591       -1.09537770492436       -0.03793932765564
C            0.90747823273550        0.20461711311245       -0.01630594985455
C            0.08087414073640        1.34371770110137       -0.02115909166297
O            0.46020478433890        2.52659599064725       -0.07370402521503
N           -1.36305834692661        1.05042409062742        0.06765235694793
C           -2.28277729015895        2.24261614341593        0.03674976900309
C           -1.83978198504230       -0.23465450063412       -0.10005228930408
O           -3.02624631428951       -0.49659585415794       -0.21779304711141
N           -0.92763488920236       -1.33108776365693       -0.10806625500606
C           -1.39847672840831       -2.70287562909751       -0.12689026888065
H            3.75520165141141        1.17190690328578        1.09363261335883
H            4.03192898524030        1.03889891500668       -0.65618456507633
H            2.72408365731275        2.08579514529496       -0.03578919431667
H            3.60898481427220       -1.68892194405655        0.12525193010007
H           -1.67508934602353        3.03872666029750       -0.41699499692407
H           -3.17045519654167        1.90316716355112       -0.53614665082022
H           -2.84295361175440        3.08289220592011        1.00385195189741
H           -1.05861360724140       -3.24517566195934        0.76355670440622
H           -1.04280443709673       -3.23849463510493       -1.01416915078842
H           -2.48669238864325       -2.68553949563441       -0.13738638054010
H            1.39519753574138       -2.97813260153902        0.01300310429275
25
 energy: 35.067709136188 xtb: 6.6.1 (8d0f1dd)
C            3.26406395797434        1.14367126314204        0.11754401286579
N            2.31237193120484        0.08410689046925        0.03324767834658
C            2.62421523893407       -1.27374571137490        0.06443284612448
N            1.44027075291040       -1.97247790021346        0.01664403996971
C            0.41821428645984       -1.09844934146901       -0.03557558809002
C            0.91104613840465        0.19983141475476       -0.01499736290357
C            0.08304925591539        1.34837613129446       -0.01970591114200
O            0.45927542818282        2.52137628836665       -0.08499079047550
N           -1.36009127839234        1.05735944073361        0.07938087728464
C           -2.28947368258182        2.24718625191003        0.04099489842168
C           -1.83943114605955       -0.23079851474487       -0.10238035048625
O           -3.01746620838951       -0.49485883818033       -0.24084719093262
N           -0.92500221222813       -1.32826195670736       -0.11117443161210
C           -1.39314064135956       -2.70323718285119       -0.13501828119068
H            3.75750480228191        1.15668835102593        1.09569939801636
H            4.03111073458856        1.03298062587944       -0.65461447742179
H            2.72928376700304        2.08054611939495       -0.02708381433831
H            3.60431996094294       -1.68368941798543        0.13557705698464
H           -1.71935975559596        3.00799314524082       -0.49150757809014
H           -3.20310782813339        1.87392743627899       -0.44037285757110
H           -2.81809138102632        3.17364399608260        1.00470225854938
H           -1.04842420652883       -3.24342713647703        0.75400748967187
H           -1.03415261609576       -3.23295402601910       -1.02407503131068
H           -2.48031790749612       -2.69687292137119       -0.14536970926222
H            1.40554727702058       -2.97988580500744        0.01251671473920
25
 energy: 33.888373586562 xtb: 6.6.1 (8d0f1dd)
C            3.26484265048261        1.14057106185712        0.12008145155421
N            2.31349949041452        0.07856312304081        0.03703452549909
C            2.61893065689782       -1.26740272675731        0.06438191175546
N            1.44225667501201       -1.97023494853116        0.01731298215818
C            0.41575686739243       -1.09676535303626       -0.03098584573627
C            0.91544991707003        0.19924575520006       -0.01058245645600
C            0.08836721866682        1.35381761686944       -0.01857811385540
O            0.46406530871303        2.52223036354617       -0.09176004869738
N           -1.34728667883750        1.06050421904598        0.07826589178615
C           -2.28641911280825        2.24240551243423        0.03814660174772
C           -1.83753790710790       -0.22561152484246       -0.10311421694001
O           -3.01166960727645       -0.48438020375792       -0.25013697761714
N           -0.92416810968587       -1.32442856777664       -0.10844516766354
C           -1.39588320711571       -2.69920439692082       -0.13763498931463
H            3.75742111622776        1.15115900765313        1.09783395269769
H            4.03066390652932        1.02974849923145       -0.65248989840736
H            2.73024437601615        2.07737227111917       -0.02339234294229
H            3.59943426743718       -1.67907104714835        0.13792484310823
H           -1.75801525435802        2.98651190279813       -0.53343093278818
H           -3.21422282087615        1.84912471574048       -0.37890019864664
H           -2.79037675307019        3.18124781030690        0.99501942976146
H           -1.05212224038774       -3.24120549578086        0.74977165993473
H           -1.03660242491321       -3.22477807438396       -1.02861706834052
H           -2.48218408259484       -2.69256016742860       -0.14929919606895
H            1.40777041610826       -2.97783075030653        0.00862809961872
25
 energy: 30.842847374120 xtb: 6.6.1 (8d0f1dd)
C            3.26526614196143        1.14117205575375        0.12321209706725
N            2.31503298773937        0.07798864673071        0.04030156022583
C            2.61730288370957       -1.26396645220923        0.06364426431779
N            1.44176541401588       -1.96842691420396        0.01628448280457
C            0.41435202360663       -1.09325590309241       -0.02804996967855
C            0.91773432213209        0.20155990988879       -0.00652740537462
C            0.09154640145614        1.35782153552367       -0.01710826191121
O            0.46839480079050        2.52677067992720       -0.09197767612917
N           -1.33704403842794        1.06248196859734        0.07772009277581
C           -2.28230730054308        2.23848150120937        0.03838753342246
C           -1.83635001373944       -0.22095937056202       -0.10139787146507
O           -3.01073494254565       -0.47497010582226       -0.25090324127446
N           -0.92475058081284       -1.32109794238040       -0.10569288281286
C           -1.40014835373234       -2.69466785419227       -0.14001635694196
H            3.75647824655012        1.15091990799629        1.10149112982706
H            4.03127466624293        1.02928949443894       -0.64871130746725
H            2.72955523860296        2.07680437312302       -0.02079832329496
H            3.59665174201142       -1.67896956127697        0.13745754455949
H           -1.78005235816093        2.97571261003778       -0.58344686474825
H           -3.21987740155127        1.82087374234308       -0.33318729931027
H           -2.75946012179797        3.16300370711947        0.99185999700689
H           -1.05876109411707       -3.24007398775465        0.74597151679892
H           -1.04143789539593       -3.21797241042435       -1.03248849310918
H           -2.48638428577024       -2.68405023757587       -0.15293491342036
H            1.40416818571179       -2.97544079102276        0.00394454427943
25
 energy: 25.614911876908 xtb: 6.6.1 (8d0f1dd)
C            3.26555142022543        1.14307620116589        0.12325876297074
N            2.31613895382573        0.07941869881929        0.04158441714758
C            2.61688286793286       -1.26226053309813        0.06264315145074
N            1.43943968370738       -1.96662648055051        0.01609944943383
C            0.41317170948108       -1.08850030584613       -0.02659517223222
C            0.91851996576496        0.20524089855401       -0.00401459726825
C            0.09200888149168        1.36084906205478       -0.01588726589534
O            0.47132362648791        2.53147987499550       -0.08866012878641
N           -1.32909047072694        1.06525102748730        0.07340209999656
C           -2.27836953813668        2.23803627098260        0.03541790808844
C           -1.83552376100796       -0.21605486739036       -0.10367812888151
O           -3.01180833686752       -0.46611209397459       -0.24922406163841
N           -0.92614409688235       -1.31775667523648       -0.10353712943531
C           -1.40396137233791       -2.69033757794986       -0.13890837368353
H            3.75608609227828        1.15432535627417        1.10201433773202
H            4.03233781779181        1.02918565404041       -0.64756012116692
H            2.72865282417489        2.07735180890733       -0.02279630168877
H            3.59422906192911       -1.68193430056027        0.13701826462273
H           -1.80267603323683        2.96441231244023       -0.59507103189989
H           -3.20646568769289        1.81506736613891       -0.30673645811533
H           -2.73313996455863        3.11554492495723        0.97253063566661
H           -1.06477179367518       -3.23776639088249        0.74687590688363
H           -1.04608586576285       -3.21443650093199       -1.03129993369585
H           -2.49070472750235       -2.67550127570027       -0.15272244065253
H            1.39661341123308       -2.97292385252431        0.00288010719468
25
 energy: 22.862091716176 xtb: 6.6.1 (8d0f1dd)
C            3.26632993147619        1.14391253171539        0.12501628158781
N            2.31683261150075        0.08149230130088        0.04169067886982
C            2.61889641414825       -1.26490567311414        0.06231587806686
N            1.43741363166511       -1.96688945392667        0.01541588805310
C            0.41411816942396       -1.08650286173146       -0.02839306182907
C            0.91830973562853        0.20701183023228       -0.00508105953008
C            0.09177216336873        1.36123707874146       -0.01765520725679
O            0.47331792246724        2.53355349350236       -0.08424716304732
N           -1.32828745096582        1.06822661335173        0.07159171545998
C           -2.27877581876083        2.24335801215971        0.03453150870187
C           -1.83418768248360       -0.21276568689405       -0.10451741967654
O           -3.01271219966863       -0.46243157324459       -0.24506989440134
N           -0.92669690208363       -1.31585492757714       -0.10469291431961
C           -1.40475527640285       -2.68779732004172       -0.13969031780138
H            3.75610020477625        1.15553463249071        1.10454567477611
H            4.03419118620802        1.02957676466537       -0.64496103128556
H            2.72933737584054        2.07808245480988       -0.02178979873819
H            3.59467278312084       -1.68637284822293        0.13845704189162
H           -1.81145815970397        2.96441293999251       -0.61008388427340
H           -3.21925238712164        1.80307333381398       -0.29202272467534
H           -2.70925349977083        3.09664987285028        0.96741485295146
H           -1.06654084492284       -3.23585812133350        0.74639662598287
H           -1.04698178741443       -3.21305557063522       -1.03163762666867
H           -2.49180522006548       -2.67188409771640       -0.15384737320445
H            1.39162976767624       -2.97277512301651        0.00334722651353
25
 energy: 20.245807878910 xtb: 6.6.1 (8d0f1dd)
C            3.26622206741696        1.14469312015451        0.12551328441595
N            2.31568143782566        0.08443137373068        0.03980130264909
C            2.62107668814074       -1.26853070990141        0.06008845742006
N            1.43496495893510       -1.96740384444927        0.01376293193996
C            0.41515110565466       -1.08572985293701       -0.03145488290356
C            0.91628955800983        0.20774019452930       -0.00670020305647
C            0.08756752997705        1.35989899879057       -0.01566718252063
O            0.47097405836785        2.53355318212901       -0.07462572628065
N           -1.33339592668820        1.07006135800971        0.07679979067928
C           -2.28428188608684        2.25133538137000        0.03935884915588
C           -1.83402197309103       -0.21170604945921       -0.10136955292480
O           -3.01502754264579       -0.46318318297859       -0.23585040117360
N           -0.92746085736834       -1.31526175918987       -0.10615459672280
C           -1.40377909155584       -2.68692274936520       -0.14038325153349
H            3.75619962123370        1.15607154684468        1.10544293546706
H            4.03493533853448        1.03091117118723       -0.64416627941577
H            2.73027495769513        2.07988699476718       -0.02075458628285
H            3.59571039439298       -1.68979998767208        0.13896861146704
H           -1.81152881007687        2.96445619138329       -0.62535115420412
H           -3.21647799739430        1.80468499441405       -0.29301070542682
H           -2.69273822087114        3.08275688366367        0.95840009930504
H           -1.06518842247801       -3.23466426522383        0.74611433910001
H           -1.04566172531146       -3.21293704993477       -1.03194442067670
H           -2.49107647918642       -2.67212558364723       -0.15399217992433
H            1.38780588450620       -2.97318775404318        0.00420841759457
25
 energy: 19.674496961519 xtb: 6.6.1 (8d0f1dd)
C            3.26583221809061        1.14416162161297        0.12506665873272
N            2.31414753738491        0.08515655209851        0.03819059215262
C            2.62127510873618       -1.26962042797684        0.05850527938997
N            1.43441961633461       -1.96761531960684        0.01350733461460
C            0.41529837316999       -1.08669676863616       -0.03259265336370
C            0.91524951725953        0.20672249188004       -0.00778138620872
C            0.08528293802331        1.35881502955479       -0.01396274085835
O            0.46859992437913        2.53193268459466       -0.07213711836448
N           -1.33707652728547        1.06971841734317        0.07995132077469
C           -2.28821982219370        2.25573513634201        0.04238310294321
C           -1.83427013245953       -0.21240782295056       -0.09929125318972
O           -3.01566249638500       -0.46507257060105       -0.23299541849495
N           -0.92769384348380       -1.31552280195051       -0.10683637383620
C           -1.40259344921050       -2.68743671414785       -0.14025434895438
H            3.75628690153471        1.15462178855784        1.10479814655272
H            4.03435464355839        1.03118214446533       -0.64501795913466
H            2.73120946257056        2.08052747456369       -0.02000038387549
H            3.59632091750967       -1.68858808720451        0.14016664143320
H           -1.80707752988398        2.96171462063506       -0.61947670043242
H           -3.21925786366245        1.81270931958637       -0.30170302577100
H           -2.68677479042063        3.08515223066686        0.94981294703879
H           -1.06317006184632       -3.23419325860143        0.74654641042292
H           -1.04360866489618       -3.21332885774477       -1.03154612469767
H           -2.48972390494588       -2.67493417029635       -0.15369142095981
H            1.38906659605796       -2.97370411001221        0.00539237023342
25
 energy: 19.187226445733 xtb: 6.6.1 (8d0f1dd)
C            3.26514819778236        1.14330241803769        0.12451861204124
N            2.31245081126709        0.08480166304829        0.03728764750944
C            2.61973940558027       -1.26822523050132        0.05620709806097
N            1.43461891951610       -1.96716629701193        0.01356791507366
C            0.41417999558688       -1.08766037818152       -0.03167243000310
C            0.91487661301201        0.20559238720393       -0.00724064202733
C            0.08418973939854        1.35890020874938       -0.01067088740752
O            0.46653802741084        2.53064083812569       -0.07258701873211
N           -1.33806672423096        1.06811746697748        0.08522284867433
C           -2.29093299636869        2.25708265552240        0.04781458239934
C           -1.83516508375572       -0.21333286680138       -0.09662303459881
O           -3.01572016209203       -0.46575184169284       -0.23276655620350
N           -0.92809996326266       -1.31560575455482       -0.10626735464351
C           -1.40225519485887       -2.68805132670655       -0.14023537587593
H            3.75616885044312        1.15208969504849        1.10373393569528
H            4.03278271482577        1.03086519865119       -0.64634550104417
H            2.73171896764174        2.08060072527118       -0.01904584625901
H            3.59592957642781       -1.68442200997687        0.14159766230223
H           -1.80444822719986        2.95555653144404       -0.61719982011257
H           -3.22064102020566        1.81979733602076       -0.30775048404857
H           -2.67973275096253        3.09021265446285        0.93991429276323
H           -1.06214181447243       -3.23452736810173        0.74632277978197
H           -1.04226813255379       -3.21271655942324       -1.03173628240500
H           -2.48907047647263       -2.67743146017579       -0.15399901758392
H            1.39241539547942       -2.97364008326315        0.00498677279069
25
 energy: 18.905270409817 xtb: 6.6.1 (8d0f1dd)
C            3.26496415227017        1.14320958268747        0.12438345932484
N            2.31231011264219        0.08428439220333        0.03772297082435
C            2.61863783632425       -1.26665969715908        0.05525323001792
N            1.43484250775062       -1.96668195026594        0.01398329024340
C            0.41324671620263       -1.08747456407212       -0.03007732860882
C            0.91507733992317        0.20575893501772       -0.00621469368553
C            0.08469657005592        1.35964512348415       -0.00993786465449
O            0.46641758368944        2.53098350825880       -0.07497392284991
N           -1.33676047665090        1.06719312091719        0.08746705707982
C           -2.29037582853423        2.25561244024292        0.05047197259643
C           -1.83591573367969       -0.21336372748616       -0.09630538725224
O           -3.01566247975098       -0.46508756004639       -0.23498453730631
N           -0.92835182369540       -1.31536960162476       -0.10546506972197
C           -1.40277075232186       -2.68805491386161       -0.14026598577295
H            3.75612241694293        1.15158350392360        1.10337959808415
H            4.03217425004013        1.03053009056963       -0.64672342172058
H            2.73142913157969        2.08032294985992       -0.01905302539065
H            3.59514596565021       -1.68260641453595        0.14252912091794
H           -1.80545744432875        2.95236474595337       -0.61780184169496
H           -3.22050700843260        1.81978569263659       -0.30751873446670
H           -2.67568983864019        3.09037886822070        0.93761229484292
H           -1.06270804058634       -3.23493889056412        0.74596632373033
H           -1.04267776088555       -3.21209074306729       -1.03203399084225
H           -2.48952218561236       -2.67712392535696       -0.15432624199005
H            1.39354945798362       -2.97317236376274        0.00394662444264
25
 energy: 18.827136838132 xtb: 6.6.1 (8d0f1dd)
C            3.26497701147300        1.14341199567366        0.12433070153175
N            2.31263547453542        0.08402692223803        0.03817865078392
C            2.61832337555095       -1.26604038151921        0.05464784800252
N            1.43490830932327       -1.96649998219972        0.01433293052954
C            0.41291570263851       -1.08716256866268       -0.02907565603013
C            0.91515202301128        0.20616860950067       -0.00554981343779
C            0.08509926592949        1.35996381466131       -0.01012389929822
O            0.46641071917785        2.53138778088430       -0.07668910088964
N           -1.33613704139486        1.06679170949293        0.08852744756606
C           -2.28950966448438        2.25437699324876        0.05165506597158
C           -1.83635640028065       -0.21322888844618       -0.09667988572519
O           -3.01560742820338       -0.46480489122900       -0.23696850467484
N           -0.92838688752551       -1.31528345986581       -0.10504160760068
C           -1.40304432843729       -2.68802668223835       -0.14027585438622
H            3.75615335944860        1.15197538836013        1.10329111314863
H            4.03213758125091        1.03052624634350       -0.64676441185707
H            2.73105095278668        2.08018046189054       -0.01935150774822
H            3.59465449187686       -1.68256257767920        0.14321946495848
H           -1.80617442832955        2.95140414893488       -0.61822450350500
H           -3.22005700070863        1.81903022934998       -0.30716564270124
H           -2.67434467996903        3.08996328423476        0.93825792715241
H           -1.06307515434010       -3.23520181622124        0.74578535863239
H           -1.04315368382338       -3.21192763986578       -1.03219480720155
H           -2.48984509405422       -2.67652899790999       -0.15438040078669
H            1.39348819248427       -2.97291109680407        0.00329298371250
25
 energy: 18.607424432453 xtb: 6.6.1 (8d0f1dd)
C            3.26503274265827        1.14371557644190        0.12426523261977
N            2.31307057873877        0.08393330390007        0.03849470710701
C            2.61839740732779       -1.26594062350427        0.05349459465456
N            1.43481983130203       -1.96641704058506        0.01457377934651
C            0.41287841111277       -1.08677760178216       -0.02835708225029
C            0.91510836946363        0.20665906600341       -0.00495419895730
C            0.08527622923934        1.36007729464014       -0.01037904328228
O            0.46625094451714        2.53175696317231       -0.07769910251873
N           -1.33601529742703        1.06676426197744        0.08939463659742
C           -2.28872893992264        2.25377877213027        0.05239490445976
C           -1.83659688597242       -0.21282007845676       -0.09711264663938
O           -3.01551486509925       -0.46455005889301       -0.23863288290778
N           -0.92833398180902       -1.31518845362360       -0.10467014028949
C           -1.40317372604847       -2.68786861271845       -0.14020249341412
H            3.75617714959666        1.15270520759987        1.10328705199622
H            4.03233147460665        1.03071204732543       -0.64669464650979
H            2.73069090711774        2.08015918344567       -0.01975650815551
H            3.59421568980133       -1.68338773265522        0.14425139634047
H           -1.80693415038589        2.95100645994042       -0.61874304152323
H           -3.21969946177102        1.81867243552921       -0.30676175203455
H           -2.67286573073418        3.08774391718157        0.93874722045256
H           -1.06327922684190       -3.23527976513476        0.74573942136718
H           -1.04358378693504       -3.21181181059176       -1.03223371404617
H           -2.49005751950713       -2.67588338937621       -0.15423645909997
H            1.39274850490798       -2.97273071979419        0.00282466283443
