72
 energy: 31.963810222967 xtb: 6.6.1 (8d0f1dd)
N           -1.84366645720434        3.45948019440661        1.96918642097657
C           -1.98973099808953        2.77519261046769        0.92567050923980
C           -3.28689904119926        2.52358583953253        0.20066569101674
C           -3.64221467237182        1.03461786836639        0.23814853252206
C           -4.60129252869276        0.54877636319476       -0.64734725241220
C           -4.94489782583659       -0.78607368211034       -0.67188758169957
O           -5.86891558806130       -1.34902488606287       -1.49595015250740
C           -6.59068814465049       -0.52672701608408       -2.36866909432214
C           -4.30556578763444       -1.67714700287610        0.21575188897150
O           -4.71005821934796       -2.97734573634403        0.13567782871354
C           -4.20695490295998       -3.89375997744064        1.07632807579550
C           -3.35016361452638       -1.19022441533872        1.08746321170992
C           -3.02296255996144        0.15954210101786        1.10146852498933
C           -3.15782230024048        2.92827555001228       -1.23396428933269
C           -1.02535165665887        0.48347655239247       -1.56093483606091
C            0.21600889287118        0.49899688697556       -1.10247254748994
N            0.82620148341280       -0.49105737237112       -0.39416285748608
C            2.23209912279245       -0.40897761329013       -0.09958807535625
C            3.17732240742817       -0.93987512129536       -1.19695521256846
C            4.61179821871883       -0.75103375173528       -0.78190997759396
C            5.27102349189523        0.44141342474312       -1.02618461201664
C            6.58606626545362        0.62762416999061       -0.61867319886571
C            7.26726494972516       -0.37944468208101        0.04238530882391
O            8.55255596110960       -0.30911483523348        0.48899487953562
C            9.27920434171776        0.87012456428369        0.25841641849980
C            6.60387908827004       -1.60103795709633        0.29578437052981
O            7.35011137004098       -2.53590357621479        0.94748188973210
C            6.77956276834715       -3.79021436524482        1.21436372281085
C            5.29287111756796       -1.76599704013978       -0.11428222092646
C            0.21226020504717       -1.78524709005693       -0.36183072582155
C           -4.47153120683302        3.28790331563667        0.83153882024261
C           -4.73631467228494        2.80332178650421        2.25270480026561
C           -4.22565096610504        4.78927107422848        0.82809075073618
H           -5.07213156851700        1.22892705958385       -1.33313193826753
H           -7.14954064016704        0.24445457523794       -1.82856494050396
H           -7.29061948525439       -1.18790973812563       -2.87716837253306
H           -5.93910164392554       -0.05326752275061       -3.10959309650166
H           -4.42285918026557       -3.58662778932391        2.10652242605364
H           -4.70742393959815       -4.83907157654108        0.87259479190368
H           -3.12880765584498       -4.03293382437487        0.96151154175709
H           -2.85335862418087       -1.84808804013973        1.78358557172815
H           -2.27783343362399        0.51372342909404        1.79572906968467
H           -4.05164725985212        3.08495954205463       -1.82316290014659
H           -2.29605769182753        3.48789670916594       -1.54975673662668
H           -1.65191980404793       -0.38633520510714       -1.53855131817722
H           -1.28511452902231        1.23996180843427       -2.26036620647061
H           -1.14453156335917        2.28963255090070        0.41961511495280
H            0.81233245091455        1.40885845366837       -1.19781504853622
H            2.41306037030280       -0.98152998534581        0.82128408293348
H            2.49716168330971        0.63916298677032        0.07963917796436
H            2.98659467657284       -0.39365003875250       -2.12716823387643
H            2.96424883530996       -1.99512767536464       -1.35757627570603
H            4.76713157560500        1.24274861377017       -1.54797721362409
H            7.07121503230941        1.56862889452690       -0.82662330012939
H            8.82240523772220        1.73237686150873        0.75535564492748
H            9.38231764291478        1.08070555955088       -0.81144915172453
H           10.26440164658115        0.69486154920430        0.68611877874948
H            7.55751766265675       -4.36278353291754        1.71788354592823
H            5.90944418429723       -3.70887881944874        1.87450520685186
H            6.49061695875264       -4.30764634353456        0.29324909904239
H            4.77775254448999       -2.69552155754403        0.07154010478951
H            0.14497498694038       -2.24281067673987       -1.35993146499747
H           -0.80329197487113       -1.69934276029778        0.02998652481603
H            0.80773019521672       -2.40293781905042        0.30710024926469
H           -5.34443577423029        3.05677391652524        0.21404141650947
H           -3.88786419843941        3.03326147962248        2.88882424850670
H           -4.92150743913921        1.73205203765747        2.27539764151785
H           -5.60683268002551        3.31567214744129        2.64512844359476
H           -3.37277394419764        5.02385685658197        1.45934497393458
H           -4.03719977283445        5.16949687294171       -0.17420367336360
H           -5.10548230405217        5.27914544041266        1.22891458099197
H           -0.88920100119745        3.54976243525384        2.31896459624869
