72
 energy: 34.193485234920 xtb: 6.6.1 (8d0f1dd)
N           -1.81500947835600        3.37421263694149        2.02538868745206
C           -1.93775100548017        2.70428932635943        0.96720196312137
C           -3.21718936694814        2.46539281094102        0.20742532874333
C           -3.60114622887059        0.98716915177490        0.25071952285247
C           -4.56452792779157        0.51288701646630       -0.63681004255890
C           -4.93360310647029       -0.81542987144391       -0.65386919691537
O           -5.86694078833820       -1.36808330954464       -1.47851604506590
C           -6.56676561476136       -0.53605483710690       -2.35987233324037
C           -4.31612069170794       -1.71208959451728        0.24355816239000
O           -4.74523592596426       -3.00486767858235        0.16799559860803
C           -4.26287740207969       -3.92257704480551        1.11811657733413
C           -3.35978751094530       -1.23601295741454        1.11971518210153
C           -3.00783205799328        0.10680669836718        1.12629273780131
C           -3.04706265004636        2.83885625928556       -1.23197689491279
C           -1.06527972528284        0.56548695888592       -1.54996511221526
C            0.17966660386412        0.57155153510461       -1.08080433257892
N            0.80247731602429       -0.44535131264961       -0.43488227745384
C            2.20130625806725       -0.36477891542690       -0.11331429137561
C            3.15022150190134       -0.88940476024663       -1.21195614186247
C            4.58363990021442       -0.71228944961843       -0.79709546889600
C            5.24961593075829        0.47780240836899       -1.03329968920715
C            6.56276725391845        0.65490696175636       -0.61641887254459
C            7.23485168526779       -0.35827083491377        0.04534394872736
O            8.51844547985553       -0.29531987729760        0.50046866244543
C            9.25338044167875        0.87796127452551        0.26692995774789
C            6.56354488273711       -1.57550497403774        0.29438044971380
O            7.29971409915376       -2.51602719298792        0.95086151584198
C            6.72198250742220       -3.76850783817734        1.20766622036718
C            5.25405035428580       -1.73143967913624       -0.12463353352494
C            0.17497008872772       -1.73312454258868       -0.40046595638543
C           -4.40194161982303        3.26276907176812        0.79622347147152
C           -4.71249773022087        2.79747563634469        2.21376528825776
C           -4.12394317513327        4.75925275436160        0.78908620252092
H           -5.01780585637283        1.19626283984936       -1.33235871575360
H           -7.11235700745647        0.24944507842976       -1.82568950767928
H           -7.27634139599064       -1.18642685047130       -2.86838682247864
H           -5.90279131244143       -0.07766163450292       -3.10011019055558
H           -4.47998495674448       -3.60265702250423        2.14464354261960
H           -4.77742014657148       -4.86122077439517        0.91750648918555
H           -3.18567953945586       -4.08070021489312        1.01295421584162
H           -2.88010143354769       -1.89627177409205        1.82426906158429
H           -2.26104714460463        0.45213924547591        1.82297372073509
H           -3.93578038462652        2.97042252628853       -1.83687046151379
H           -2.21023211872254        3.45313737833683       -1.51928349955817
H           -1.69725349537302       -0.30739515329498       -1.52185167592525
H           -1.27377345085539        1.27723859708620       -2.31851814551137
H           -1.08430236189327        2.22105736844495        0.47804869971058
H            0.78723216053628        1.48033027158298       -1.19951604801609
H            2.38118358658641       -0.94485807221615        0.80097950379387
H            2.46289549440794        0.67964227100391        0.07934433908263
H            2.95686834692616       -0.33549003487262       -2.13407443706592
H            2.92991455558963       -1.94270838536452       -1.38087859661403
H            4.74904062632413        1.28289887025872       -1.55169755237616
H            7.05526942287589        1.59322479121486       -0.81935965882723
H            8.80056462268289        1.74330518936581        0.76157016577555
H            9.35934708612162        1.08755946627472       -0.80348468802657
H           10.23669483042920        0.69804332441471        0.69675958080698
H            7.49391972454151       -4.34976723032571        1.71115568313159
H            5.85022947772187       -3.68423915472886        1.86449027520379
H            6.43296744001706       -4.27972656039648        0.28304675910963
H            4.73149874756272       -2.65724549655962        0.06070280413309
H            0.08947282106626       -2.17309400731202       -1.40455636863535
H           -0.83092004615411       -1.64274981765179        0.01344676609865
H            0.77040328069464       -2.37715089618277        0.24440513779511
H           -5.26270274161953        3.04869510855061        0.15541511674219
H           -3.87485543038307        3.01353247918060        2.86889859030017
H           -4.92150543807979        1.73038475525262        2.23917505213473
H           -5.57961329901172        3.33734097121343        2.57830031770605
H           -3.27861115863317        4.97601589327010        1.43510426889352
H           -3.91220753463439        5.12795469489420       -0.21229603632543
H           -4.99716494055697        5.27583261732071        1.17207577937642
H           -0.85799369481648        3.45145389281945        2.37198250264519
