72
 energy: 27.040240912138 xtb: 6.6.1 (8d0f1dd)
N           -1.94355109824208        3.64517221681663        1.82443893495167
C           -2.12939313804449        2.94644263188645        0.79802185445115
C           -3.48401076510789        2.69182626143226        0.18376285998831
C           -3.73054581232990        1.17392149121173        0.16179136263810
C           -4.69081774446697        0.64778569226187       -0.70011676279546
C           -4.96565211021243       -0.70616414468019       -0.72794230270532
O           -5.88670645128129       -1.30319752801762       -1.53524420133606
C           -6.66148304802599       -0.50322723534863       -2.38956126105335
C           -4.26791830821670       -1.57854561372995        0.13752034185633
O           -4.61941300175727       -2.89542010940327        0.05138888588273
C           -4.04218373536017       -3.80694524238129        0.95190214146016
C           -3.32194424421100       -1.04875934379230        0.99638066876416
C           -3.05322560192419        0.31574847912533        1.00595320235216
C           -3.44893254452890        3.22566523382798       -1.20164513175662
C           -0.86326307825937        0.27052661599519       -1.66927093361414
C            0.34443487029452        0.32973700311892       -1.11177833446062
N            0.95530213481554       -0.63904056499181       -0.35459528086709
C            2.35369661836220       -0.52585341055216       -0.05783977142060
C            3.28128574368065       -1.07842913034550       -1.15879677332626
C            4.71227881280047       -0.86784535641041       -0.76288719751465
C            5.34264937381274        0.33577952616429       -1.01629368018706
C            6.65692147807529        0.54895306556609       -0.62464895257853
C            7.36080422230835       -0.44137294392774        0.03544075242146
O            8.65067082052034       -0.34595612826218        0.47032924522354
C            9.35611552271635        0.84517443321648        0.23490273589356
C            6.72497212771954       -1.67447224901556        0.30145449715488
O            7.49700964834902       -2.59277170444471        0.94780892866465
C            6.95342265668146       -3.85463030426931        1.23304783029821
C            5.41377606123914       -1.86731694703456       -0.09273026507559
C            0.34299530661184       -1.93794406203143       -0.27985281330366
C           -4.66321853759833        3.34818028797024        0.95257616282086
C           -4.79895889567555        2.81527612435466        2.37590330539465
C           -4.52324813544442        4.86746205907761        0.96305340977951
H           -5.22417530029313        1.31571194860638       -1.35444807741877
H           -7.25722179898625        0.22774582832391       -1.83166570296733
H           -7.33096406273323       -1.19253248568304       -2.90381257712512
H           -6.04522300413075        0.01964817231751       -3.12899226740069
H           -4.25335545757617       -3.53491324597207        1.99238434884761
H           -4.50075885417788       -4.77063146040361        0.73322078429408
H           -2.95845681333059       -3.89077451747184        0.81330550098658
H           -2.78574772234479       -1.68966068307260        1.67976137747960
H           -2.31802006822073        0.69534354952594        1.69880552752855
H           -4.35775741776118        3.47140342165243       -1.72093722613739
H           -2.51669102006054        3.48730458102619       -1.66409067252712
H           -1.50350082934224       -0.59233903687819       -1.62577493648325
H           -1.25905660735662        1.12930665878952       -2.18475127879318
H           -1.32335952795737        2.46368967673913        0.22587955105263
H            0.94078709476489        1.22927793890805       -1.20325365994987
H            2.56142495677193       -1.06079211004857        0.87780420813343
H            2.59043813652317        0.53038319067637        0.09765048141945
H            3.06809469078197       -0.56214540312510       -2.10058296360698
H            3.06961782984921       -2.14017413901962       -1.28682535101681
H            4.81808523075961        1.12309552001394       -1.53815911511922
H            7.12241461859446        1.49616458353550       -0.84556519890053
H            8.88934988617758        1.70173892798453        0.73431007018193
H            9.45042858479723        1.05841647776641       -0.83544294171482
H           10.34655175984125        0.68154637865380        0.65734674316199
H            7.74963777173725       -4.40141134124079        1.73567172733187
H            6.08742595547003       -3.78515865414708        1.90081753368435
H            6.66734611683478       -4.38944417288078        0.32055536695620
H            4.91740891942620       -2.80536382250181        0.10156509876372
H            0.31455674569489       -2.43752516567299       -1.25502814598956
H           -0.68412208753099       -1.82917001162934        0.07400781855166
H            0.89973873153711       -2.54958723254599        0.42841253382635
H           -5.57193312253925        3.08286312088005        0.39918528391415
H           -3.92026151237079        3.07682525249693        2.95720933435057
H           -4.91833944844627        1.73405049009762        2.38347190429579
H           -5.67313983545107        3.26007206671734        2.84405739996816
H           -3.65246640197259        5.15308379724515        1.54583991388830
H           -4.41085538139568        5.26904247681672       -0.04385881701814
H           -5.41306272136619        5.29602640313725        1.41487192501839
H           -0.97403788214178        3.76368499410881        2.11263895860143
