72
 energy: 39.963945493027 xtb: 6.6.1 (8d0f1dd)
N           -1.73173240720589        3.21578864702474        2.11435059135211
C           -1.83750698900493        2.55660970005117        1.04595510232368
C           -3.08111597943916        2.35144205462162        0.22624211223002
C           -3.52206192924527        0.89366954010032        0.27975237150482
C           -4.49107780045394        0.43997057070605       -0.61543665483722
C           -4.91098660008663       -0.87369320909413       -0.61812632380414
O           -5.85664792791762       -1.40622546056628       -1.44831061840719
C           -6.51752319610543       -0.55557915155931       -2.34243564745921
C           -4.34295409625295       -1.77909691321983        0.30188563976437
O           -4.81559614586205       -3.05853611544820        0.23099341037546
C           -4.37709668221108       -3.97658049001301        1.20075236950021
C           -3.38412961526676       -1.32491425374070        1.18633600537267
C           -2.98071122754289        0.00270062566821        1.17846427920328
C           -2.81146679804525        2.64573761885806       -1.22028037479233
C           -1.15498910859084        0.73149721155079       -1.55656885226472
C            0.10720124917015        0.71807423145425       -1.03548733325050
N            0.74601534498334       -0.33685744265386       -0.45171878565430
C            2.14116375655622       -0.27239612235957       -0.12922168529946
C            3.08785899168447       -0.78828658549766       -1.23554974005227
C            4.52154769625806       -0.63237706244107       -0.81732635073819
C            5.20202708116420        0.55108754813270       -1.04040963365115
C            6.51370992386797        0.70942644995739       -0.61229876413876
C            7.16754960623615       -0.31504596594387        0.04974622029066
O            8.44826716658949       -0.26997711353998        0.51169460976250
C            9.20073841806116        0.89342443352681        0.28274746932788
C            6.48007989063962       -1.52487996616671        0.29002924533832
O            7.19940054922913       -2.47670023959724        0.94818047134904
C            6.60585439914185       -3.72442359032460        1.19287795936529
C            5.17250746706369       -1.66236041865317       -0.14072235379024
C            0.10500398473769       -1.61739887106709       -0.46143743623916
C           -4.25871238328355        3.21245008684246        0.72883096328832
C           -4.65711925093303        2.79116842753489        2.13722528343769
C           -3.91747957134991        4.69618249622333        0.71557448864825
H           -4.91160244537016        1.12768834746290       -1.32896791197990
H           -7.03693519750374        0.25466217112959       -1.81913943336137
H           -7.24689568493023       -1.18377270050352       -2.84997142819384
H           -5.83185021045536       -0.12834834530377       -3.08193297127417
H           -4.59577415554624       -3.63449364186662        2.21978912106797
H           -4.92155688083322       -4.89882427014649        1.00488938386527
H           -3.30421395893915       -4.17280672061893        1.11310282057579
H           -2.93368793448011       -1.99291148026909        1.90246436570852
H           -2.22755189619862        0.32858694805506        1.87757438905653
H           -3.69170928726790        2.74842208423574       -1.84832168541284
H           -2.04927037743342        3.37117663126543       -1.44756910615402
H           -1.76936368380973       -0.15234759184148       -1.50608534266609
H           -1.25481990670336        1.28291235078249       -2.47723100389292
H           -0.98433213298031        2.05616403458964        0.58635567511214
H            0.74597949400875        1.62229024218408       -1.18176486175313
H            2.31783951554570       -0.85825572601500        0.78026806507400
H            2.40366861968090        0.76449031103860        0.08257921560306
H            2.89950177163008       -0.21919425114260       -2.14694990055284
H            2.85966168156826       -1.83747953913394       -1.42414533576090
H            4.71380009211630        1.36421470574692       -1.55681921149726
H            7.02013954596548        1.64162638209084       -0.80726459356241
H            8.75719690426086        1.76364810498281        0.77669677767208
H            9.31404635041942        1.10279994909149       -0.78704193925871
H           10.17951426010389        0.69950507306316        0.71651736512348
H            7.36735574735342       -4.31954274029092        1.69630280482856
H            5.73189130775043       -3.63348302254427        1.84549274741251
H            6.31574987721753       -4.22518087504537        0.26301372228340
H            4.63757670410417       -2.58226092612862        0.03929000727637
H           -0.00460821875827       -2.01597773789172       -1.48052690120880
H           -0.88814247409360       -1.53366808513585       -0.01878960872202
H            0.70524189597898       -2.29836112829521        0.13628798387582
H           -5.09476854221136        3.02969957623755        0.04506048449859
H           -3.84111907397056        2.98196567376417        2.82968478830813
H           -4.91225493145368        1.73442184257858        2.16645833060553
H           -5.51602298174912        3.37683830282572        2.44862240689270
H           -3.08661568584431        4.88496843001197        1.38721913477987
H           -3.66172024921964        5.04131720438341       -0.28268800490676
H           -4.77712441134910        5.25798308386842        1.06558340245661
H           -0.78292078943859        3.25823754629995        2.48275628545116
