72
 energy: 33.152754115040 xtb: 6.6.1 (8d0f1dd)
N           -1.83055943534056        3.41330359333758        1.99797887047228
C           -1.96460851027259        2.73711794831008        0.94669606192816
C           -3.25257034878916        2.49344057198009        0.20379620110890
C           -3.62225028977210        1.01031764090962        0.24433659426260
C           -4.58310905669747        0.53015631811861       -0.64258265541969
C           -4.93936188146860       -0.80133372261279       -0.66317513174075
O           -5.86849052826441       -1.35912259008498       -1.48742606389065
C           -6.57889731775155       -0.53155504096138       -2.36432832842774
C           -4.31018389078265       -1.69495089721169        0.22926672372174
O           -4.72767571547861       -2.99118551519344        0.15187841894232
C           -4.23490146501504       -3.90806274674874        1.09738519528178
C           -3.35486756758228       -1.21330032808970        1.10368848859799
C           -3.01598903724819        0.13314054925245        1.11434083037584
C           -3.10281920906987        2.88307814670984       -1.23369201027010
C           -1.04536518165698        0.52254406804099       -1.54939210140231
C            0.19919090539488        0.53454511627316       -1.09232103380901
N            0.81444824186497       -0.46902714368344       -0.41275055457513
C            2.21710601196668       -0.38730302530482       -0.10613852306960
C            3.16355868128507       -0.91468203413363       -1.20477132366984
C            4.59725369378791       -0.73123524920747       -0.78830192511016
C            5.26026186065644        0.45969917924883       -1.02927630532359
C            6.57462234216726        0.64125316165130       -0.61761307636020
C            7.25130011019588       -0.36872905538937        0.04419069144881
O            8.53556049636065       -0.30182591341978        0.49673988599063
C            9.26634521579490        0.87410020346530        0.26296074042203
C            6.58368490372226       -1.58825465491360        0.29514740110799
O            7.32483706872342       -2.52597641653795        0.94930270996675
C            6.75071514900942       -3.77938695402360        1.21112522791951
C            5.27323669282337       -1.74863903346740       -0.11897161537005
C            0.19325727315396       -1.76020879663038       -0.38117618129737
C           -4.43682423129980        3.27508302785488        0.81369080290486
C           -4.72401875862582        2.80026528406456        2.23333712896141
C           -4.17486438591030        4.77409645909835        0.80832244349591
H           -5.04553343059890        1.21206175377740       -1.33265653126131
H           -7.13094722495437        0.24698306480470       -1.82736112354766
H           -7.28373852898734       -1.18719106093470       -2.87286301020831
H           -5.92110791143483       -0.06596266182289       -3.10498054708966
H           -4.45127245930996       -3.59474094153501        2.12578147214846
H           -4.74259052621847       -4.84983302907883        0.89542725167866
H           -3.15733700830637       -4.05691372110772        0.98699654824118
H           -2.86657282346358       -1.87230516372128        1.80404255179806
H           -2.27031605188407        0.48305280953346        1.81004998198702
H           -3.99443991320256        3.02677557088036       -1.83061307769172
H           -2.25332927595573        3.47252537305863       -1.53454637983658
H           -1.67462812907971       -0.34841038784698       -1.52655096535185
H           -1.27822313466547        1.24862312573520       -2.29230672666894
H           -1.11411902425858        2.25533461990622        0.44800124170354
H            0.80071426346964        1.44416817011621       -1.20046708945024
H            2.40172291894558       -0.96355026685963        0.81014136285558
H            2.47908626009449        0.65887590310613        0.07930782017166
H            2.97204616495810       -0.36440244435493       -2.13097475673619
H            2.94712289108281       -1.96900229719872       -1.36970105050255
H            4.75823068517276        1.26282466002565       -1.54983876216413
H            7.06318583522525        1.58097794020644       -0.82336183017945
H            8.81157616103904        1.73806616242456        0.75846005128889
H            9.37068354394172        1.08377442484038       -0.80731041486105
H           10.25071170791099        0.69688991092977        0.69159157457378
H            7.52574315806639       -4.35619649445773        1.71462401691349
H            5.87981439772939       -3.69657592148450        1.86970043956083
H            6.46174141998733       -4.29376313504247        0.28826865838364
H            4.75451214734557       -2.67645756925404        0.06618503163220
H            0.11705807771704       -2.20741901211763       -1.38241834613452
H           -0.81722278803704       -1.67118187124499        0.02190194332380
H            0.78819810363247       -2.39331509907650        0.27467817316256
H           -5.30374349080987        3.05234004447377        0.18494127418471
H           -3.88088149133244        3.02314442087367        2.87895019626607
H           -4.92237689785888        1.73170168777003        2.25734723397847
H           -5.59243663761190        3.32631067067757        2.61211832350073
H           -3.32561269666646        5.00087565739185        1.44673136174271
H           -3.97485238016435        5.14888031044972       -0.19341847466004
H           -5.05189965518784        5.27686184920106        1.19987724454363
H           -0.87440103070504        3.49938623268250        2.34482751686801
