72
 energy: 27.782052556498 xtb: 6.6.1 (8d0f1dd)
N           -1.93798506261668        3.63005036225753        1.86231294375479
C           -2.10431790517577        2.92874973988256        0.83102730774266
C           -3.44849211862487        2.66769609571022        0.19038316766445
C           -3.71647677033924        1.15317535762835        0.18017590112254
C           -4.68413583183700        0.63570272464134       -0.67928245196240
C           -4.96532773242052       -0.71707758452214       -0.71489617255201
O           -5.88555393235464       -1.31091535146805       -1.53025315668578
C           -6.64975016168669       -0.50634914602700       -2.38741157597546
C           -4.27194847890857       -1.59506273697949        0.14772363846120
O           -4.62332511173729       -2.91445964551413        0.05245521891877
C           -4.06735792016887       -3.82298754946062        0.97088347173744
C           -3.32508362559322       -1.07309381369157        1.01062699691391
C           -3.04995046957135        0.29024319245502        1.02589496832399
C           -3.40750135235792        3.16911422341248       -1.21249313276406
C           -0.89318946807707        0.30309523723312       -1.64319665993289
C            0.33232823675020        0.34868515981512       -1.13492062645787
N            0.93140567387971       -0.60825071440179       -0.35464767287109
C            2.33179768119972       -0.50479929349062       -0.06492078698479
C            3.25991783960746       -1.05807098398511       -1.16214334594995
C            4.69101974447752       -0.85096274445595       -0.76169518090022
C            5.32691776086744        0.35069341586716       -1.01645036709992
C            6.64184417631419        0.55891283548770       -0.62467607223850
C            7.34276951172067       -0.43321366596566        0.03485958795868
O            8.63268389422654       -0.33965482870336        0.47257782789373
C            9.34282859173055        0.84972949966280        0.23827924996976
C            6.70364705912904       -1.66395061388850        0.29866520566141
O            7.47169028516615       -2.58370994141367        0.94788289246795
C            6.92395140302184       -3.84428488611782        1.23013355024086
C            5.39208532982405       -1.85209413986746       -0.09555249775543
C            0.32060290740661       -1.90858893773395       -0.28638161530583
C           -4.63267846333270        3.34141894083985        0.93052941226914
C           -4.79238743031745        2.81450821650122        2.35417075799283
C           -4.47560915389682        4.86007130471953        0.93554760409977
H           -5.20398921954520        1.30744001409798       -1.33878853474326
H           -7.23937563190123        0.23094082216355       -1.83079930353251
H           -7.32400763705074       -1.19212195258872       -2.90076727534554
H           -6.02623207255860        0.00970146313944       -3.12660781762868
H           -4.28163641772436       -3.54218323103091        2.00930201214538
H           -4.53395927473665       -4.78412069827980        0.75521388955360
H           -2.98404608909438       -3.91680014352997        0.83996096939396
H           -2.79358446540579       -1.71904712235299        1.69309706375814
H           -2.31412014810003        0.66635292710255        1.71973061151874
H           -4.31220801142230        3.39536299674783       -1.74940147750873
H           -2.50220701421201        3.52848329312673       -1.64819410570526
H           -1.52746663989088       -0.56150015823526       -1.59648337038909
H           -1.27496086734884        1.14520621888034       -2.18636497246322
H           -1.28799940362185        2.44944978321433        0.26848077806222
H            0.92281277354741        1.24933476087281       -1.23301164028223
H            2.53557898694888       -1.04486852281661        0.86794931636450
H            2.57297782839146        0.54962064375475        0.09206469047457
H            3.05541901501900       -0.53765454922062       -2.10593089550045
H            3.04778204494431       -2.11880988207492       -1.29245154058770
H            4.81008586072737        1.14283931820245       -1.53933929988866
H            7.11155901473588        1.50575110066119       -0.84187364980435
H            8.87813250392269        1.70718425373500        0.73784515107435
H            9.43888465690512        1.06215200435048       -0.83181832377974
H           10.33209620747634        0.68254089788041        0.66208126545521
H            7.71731626614252       -4.39504420393898        1.73284218932251
H            6.05723998063474       -3.77273919808874        1.89662629903045
H            6.63748595508455       -4.37598897771071        0.31604678013791
H            4.89325163222033       -2.78852387114810        0.09736762957359
H            0.29155707198103       -2.40002503773866       -1.26586205650891
H           -0.70979544932364       -1.81612106027920        0.06627409267970
H            0.88377733836659       -2.51699377208089        0.41931164111733
H           -5.53499369473565        3.07981765866601        0.36560087155273
H           -3.91924754151502        3.06910161756994        2.94588627837730
H           -4.92219657407207        1.73405573539011        2.36444125940879
H           -5.66842599402441        3.26970716828107        2.80855432110329
H           -3.60727218386520        5.13571464660419        1.52862236455866
H           -4.35136736958009        5.26058470951311       -0.07180497346943
H           -5.36614586630555        5.29368118036407        1.37912359087601
H           -0.96765198636709        3.74950047084904        2.16051540439289
