72
 energy: -2.175095953352 xtb: 6.6.1 (8d0f1dd)
N           -1.56713639414867        2.90832679733699        2.21218491598372
C           -1.64053752098290        2.26841622328262        1.13430324854344
C           -2.84367087908740        2.13993565932596        0.24643406323362
C           -3.38081865076706        0.72006157461486        0.31922534310766
C           -4.36065363761551        0.30528844781622       -0.58537496447890
C           -4.86839484167173       -0.97772527336463       -0.55634113319702
O           -5.83120110965779       -1.46692783260652       -1.39025709742011
C           -6.43176307098123       -0.59303601301503       -2.30918903614374
C           -4.38442768382728       -1.89422158598707        0.40239140193276
O           -4.94031654460950       -3.13770494415954        0.35383565037005
C           -4.57845865982130       -4.06447080540069        1.34523800443016
C           -3.41617494075644       -1.47948984061077        1.29538055959826
C           -2.91920822328186       -0.18372250108216        1.25291462100909
C           -2.33019299099547        2.32415890993563       -1.20144709873639
C           -1.34714174947945        1.13486229289131       -1.63123643116955
C           -0.00590340097694        1.04631496319023       -0.92403950671336
N            0.64852846345330       -0.11810467641163       -0.53335541769300
C            2.03192004253438       -0.09773296212275       -0.15655357449210
C            2.97939840534243       -0.61222938465225       -1.26759818434789
C            4.40765808934763       -0.49185453316434       -0.83706530825114
C            5.11491784487133        0.67825959256916       -1.04424340157597
C            6.42510443722556        0.80344683717335       -0.60505888562492
C            7.04840538231505       -0.24020828304623        0.05554580248444
O            8.32755336744954       -0.22799103588046        0.52495338723159
C            9.10851621584702        0.91836888094352        0.30858526270832
C            6.33320912717376       -1.43678384709491        0.28244566277847
O            7.02637836503641       -2.41050890452755        0.93768369478284
C            6.40329460914901       -3.64737036085644        1.16386327646556
C            5.02825038841600       -1.54263193085690       -0.16010637342948
C           -0.00856965752455       -1.39147099509945       -0.57654490134064
C           -3.98451163600763        3.11661790736595        0.61887501819656
C           -4.54534798098802        2.78091845069335        1.99907430161187
C           -3.55006807058590        4.57822834387265        0.59631159926547
H           -4.73187966128068        1.00035194556133       -1.32136889137990
H           -6.90529028292648        0.25813118339406       -1.80789535482465
H           -7.19499317895333       -1.18395880388420       -2.81204605147664
H           -5.71486578026193       -0.22468542963654       -3.05112246087023
H           -4.79800972188065       -3.69100604068408        2.35189964916517
H           -5.18038833191493       -4.94986629047529        1.14908418277331
H           -3.51816328605236       -4.33066272104007        1.28339993854675
H           -3.03084237187608       -2.15400292487229        2.04211919228291
H           -2.16865298444422        0.11223160908658        1.96837122365704
H           -3.19673336656738        2.45547379785883       -1.86748463469397
H           -1.77090770384306        3.26383312616303       -1.27016923741046
H           -1.80657867371252        0.14867033235205       -1.56878819865931
H           -1.13673340234653        1.34161281240853       -2.70612853153843
H           -0.78096932366769        1.75336329148878        0.66253582287504
H            0.66966430194186        1.89958643781059       -1.03015057086287
H            2.17390047346211       -0.71619028189166        0.73953251179894
H            2.32372252500918        0.92169926308241        0.09953890414473
H            2.80348443868313       -0.01731928160376       -2.16301219136376
H            2.73439210582665       -1.65259724399146       -1.48794581283698
H            4.64879720350953        1.50397232808337       -1.56012115280975
H            6.95417191691490        1.72436108444646       -0.79169854843387
H            8.68264122672004        1.79700311813845        0.80413965093189
H            9.23448731497816        1.12993417218847       -0.75927424602275
H           10.07921315352063        0.69572230195780        0.74772844691467
H            7.14844972124606       -4.26361170099011        1.66572630277642
H            5.52618844020955       -3.54557922981791        1.81134740959030
H            6.10938878354484       -4.13146526886278        0.22625451908802
H            4.47299448633966       -2.45304448777470        0.00687229065302
H           -0.16200495908440       -1.74255010137549       -1.60479304498996
H           -0.98050776489257       -1.32763623082108       -0.08141045418627
H            0.59945287304328       -2.12460297836944       -0.04876455856096
H           -4.78075365343261        2.98175218970495       -0.12195155305870
H           -3.78140515074851        2.92946231536067        2.75728866659271
H           -4.88708072218264        1.74950718738401        2.03582204112729
H           -5.38343101165091        3.43655875894898        2.21976064849536
H           -2.74725514496582        4.73752973893930        1.30799702291269
H           -3.22374513438875        4.88247310074165       -0.39356271791341
H           -4.38767399034555        5.20886726315201        0.88349149153099
H           -0.65550317594635        2.91374892656849        2.65994589357565
