72
 energy: 37.329574563255 xtb: 6.6.1 (8d0f1dd)
N           -1.77503607035126        3.30188146203638        2.07462955015094
C           -1.88565052168730        2.63718023458847        1.00887957913789
C           -3.14784630727418        2.41013876827633        0.21680020416140
C           -3.55979475932260        0.94198576378184        0.26552079076360
C           -4.52705608283799        0.47753161610289       -0.62536296688123
C           -4.92220296588499       -0.84379786164939       -0.63588288351621
O           -5.86283569727322       -1.38732237074232       -1.46396134986990
C           -6.54232842722338       -0.54533593086867       -2.35144072586424
C           -4.33013212789038       -1.74559851772526        0.27291354899651
O           -4.77991302801272       -3.03300901120298        0.19693137986752
C           -4.31996967597471       -3.95019985653807        1.15862054715233
C           -3.37380747328742       -1.27977917736347        1.15446449993042
C           -2.99597397737042        0.05570815173798        1.15470387579891
C           -2.93406840264150        2.74610345465603       -1.22655680945323
C           -1.10744881658464        0.64657650361415       -1.55193837423640
C            0.14154200797021        0.64527439199696       -1.05663113548891
N            0.77414776503420       -0.39208668589129       -0.46060628224704
C            2.16923040414714       -0.31939687297084       -0.12470651058816
C            3.12046944858969       -0.83883487406644       -1.22465653293035
C            4.55362836930209       -0.67303990271840       -0.80921847617434
C            5.22619336187257        0.51434882146219       -1.03755396573847
C            6.53839128641208        0.68219100479421       -0.61451146144430
C            7.20122580153911       -0.33678769818510        0.04742942449548
O            8.48332971140310       -0.28259187099808        0.50616047777931
C            9.22706927183144        0.88576795621202        0.27484892843841
C            6.52197993350071       -1.55020071841428        0.29220837425190
O            7.24967565713322       -2.49628643686155        0.94976476087264
C            6.66413689723560       -3.74651194705223        1.20030612418933
C            5.21356140272773       -1.69705521817201       -0.13310273990187
C            0.13885370714490       -1.67580167453213       -0.43379558926906
C           -4.33276685282704        3.23749912226364        0.76036669684120
C           -4.68697805821691        2.79424492275174        2.17449983698191
C           -4.02139806936871        4.72814857783372        0.75133799433180
H           -4.96343970452859        1.16294500996116       -1.33091228527515
H           -7.07488021082485        0.25261512710489       -1.82243798758187
H           -7.26176212421926       -1.18460060175692       -2.85962854584356
H           -5.86695285964888       -0.10211202799582       -3.09093922379956
H           -4.53808961914928       -3.61864947126286        2.18144648416722
H           -4.84893028774388       -4.88130916556461        0.96100725554130
H           -3.24462043952225       -4.12703975229996        1.06282487349714
H           -2.90659059689929       -1.94531702855252        1.86267776896740
H           -2.24342265906401        0.39022218472139        1.85027978732350
H           -3.81661008146237        2.85943148720254       -1.84518105488930
H           -2.12833132613769        3.40685195966602       -1.49058780626665
H           -1.73748180140921       -0.22975029779592       -1.51490933241482
H           -1.26389238193473        1.28773855302771       -2.39656952492645
H           -1.03281802698920        2.14239899826317        0.53646264688959
H            0.76363305818082        1.55206312347354       -1.19204551407525
H            2.35068236381196       -0.89836538211002        0.78985963187889
H            2.42817184343451        0.72079502937401        0.07831296247070
H            2.92840344384353       -0.27750843118132       -2.14098456971795
H            2.89515286902250       -1.89013333390383       -1.40281756552523
H            4.73147917578862        1.32340303042353       -1.55475057793653
H            7.03795833164549        1.61745945313500       -0.81330944355594
H            8.77879924011864        1.75354552651119        0.76902807461379
H            9.33679867624015        1.09522399809281       -0.79528046607055
H           10.20809575326507        0.69904221934767        0.70677282491502
H            7.43080166518170       -4.33484342753199        1.70381421792832
H            5.79122933923787       -3.65895871689861        1.85490949431191
H            6.37465337027675       -4.25242079780880        0.27298343609013
H            4.68457697557369       -2.61972725159993        0.05002416631539
H            0.03962949163469       -2.09807682180682       -1.44422176742478
H           -0.85931106312124       -1.58656929362451       -0.00218223093098
H            0.73674417895516       -2.33894232938426        0.18818765977581
H           -5.18128343203056        3.04175369500124        0.09576565498269
H           -3.85962318515926        2.99734010894931        2.84861197525192
H           -4.91758764882401        1.73163478529387        2.20262321028983
H           -5.55083608523065        3.35801624476415        2.51236389465352
H           -3.18349254948796        4.92932201065178        1.41105331260747
H           -3.78671021534465        5.08536700224142       -0.24847968470233
H           -4.88758513206772        5.26835547543039        1.11789668548917
H           -0.82007196788010        3.35663704415460        2.42857455303996
