72
 energy: 1.836084220663 xtb: 6.6.1 (8d0f1dd)
N           -1.59114802579544        2.95355824359537        2.20111403139716
C           -1.66929218337978        2.30891292856807        1.12606046904011
C           -2.87654644939964        2.16771898851192        0.24599266441605
C           -3.40289433827435        0.74451641630939        0.31649576828517
C           -4.38014064823129        0.32504825726839       -0.58871601386177
C           -4.87494985820569       -0.96279673978958       -0.56519074711418
O           -5.83495257665220       -1.45891357980792       -1.39901030626894
C           -6.44403746584734       -0.58800398936710       -2.31436184143672
C           -4.37896436772733       -1.87796541050789        0.38818083117362
O           -4.92258502241000       -3.12700935416480        0.33568647994482
C           -4.54970306963246       -4.05186944987326        1.32494640514448
C           -3.41233135676625       -1.45801518273291        1.28040743233622
C           -2.92894919400309       -0.15758232166704        1.24385416693845
C           -2.37542714679986        2.33496874750901       -1.20655753841967
C           -1.36645045907381        1.11074094228062       -1.61068186733908
C           -0.00431454939738        1.01415403255666       -0.93255780859915
N            0.65545934813061       -0.14553090032846       -0.52255552248125
C            2.04320613539124       -0.12132621408748       -0.15551504766278
C            2.99445856408596       -0.63667512651195       -1.26417398999477
C            4.42364795947772       -0.51150320966365       -0.83559377546553
C            5.12767264573270        0.66056905613799       -1.04432583567254
C            6.43784193738977        0.79040939483310       -0.60583944490765
C            7.06537096665086       -0.25065292973315        0.05508912078479
O            8.34476139551665       -0.23367424512119        0.52412236350834
C            9.12167462401779        0.91492376995357        0.30522148271621
C            6.35404811494594       -1.44898918290991        0.28345439065490
O            7.05076525324002       -2.41963491532807        0.93989497650773
C            6.43200975706014       -3.65811134096196        1.16827734239733
C            5.04894428014730       -1.55931787879779       -0.15842076591018
C            0.00582448211108       -1.42258391164145       -0.56206686955243
C           -4.02280662605449        3.13025624063977        0.63190594878544
C           -4.56145234695662        2.78243635374469        2.01818954227995
C           -3.60229010507606        4.59529878425920        0.61289734371947
H           -4.75763900831880        1.01907734372168       -1.32250871222323
H           -6.92427136519871        0.25752563952702       -1.80985720980435
H           -7.20243064989298       -1.18428868223750       -2.81793511537906
H           -5.73133200434656       -0.21091369523109       -3.05591089259795
H           -4.76927711386317       -3.68190657052347        2.33310067216270
H           -5.14324015310490       -4.94302282596639        1.12953387700770
H           -3.48725376022474       -4.30779373663109        1.25980702176296
H           -3.01627124227452       -2.13190828585681        2.02176280494747
H           -2.17651781855946        0.14300555695110        1.95507058038955
H           -3.25346599980205        2.47557122065489       -1.86423856101596
H           -1.81004556500644        3.27102724995035       -1.29473704997709
H           -1.81644429217737        0.11916263113135       -1.54275453579119
H           -1.17315555266967        1.31883094641481       -2.69152944636610
H           -0.81163693091150        1.79246011720234        0.66100465891407
H            0.67832820850665        1.86548445728715       -1.05830712864565
H            2.19280349180580       -0.73543061114002        0.74293554093480
H            2.33276045911486        0.89938829006002        0.09638267965899
H            2.81694277146154       -0.04563887183732       -2.16156785138712
H            2.75265089790011       -1.67866435921558       -1.48023208697076
H            4.65822755838172        1.48457382202537       -1.55985405049843
H            6.96394004977051        1.71302288797961       -0.79285063197341
H            8.69323071430541        1.79251208188755        0.80018137227265
H            9.24574750662879        1.12594366424569       -0.76306170645619
H           10.09361156213995        0.69679019450532        0.74362437795094
H            7.17922396843551       -4.27178394263948        1.67048289721365
H            5.55522070008365       -3.55783407338838        1.81620811672456
H            6.13880136927393       -4.14440916075497        0.23162109823857
H            4.49665101515470       -2.47113253068658        0.01070095901779
H           -0.14091357370952       -1.78222786314530       -1.58896537040326
H           -0.96900197347039       -1.35791416331792       -0.07346961996710
H            0.61325174969959       -2.14937987587599       -0.02436494414551
H           -4.82629276286114        2.98973883613046       -0.09986818130181
H           -3.78951278099069        2.93681614779061        2.76738180462932
H           -4.89120326585414        1.74714447536448        2.05488678378554
H           -5.40270513044594        3.42894647676390        2.25245915116306
H           -2.79576200871096        4.75682144487431        1.31963622802797
H           -3.28607217753514        4.90615768447495       -0.37802202399987
H           -4.44291016373414        5.21677032392565        0.91021422012095
H           -0.67347797845157        2.96307194956920        2.63557210181991
