72
 energy: -5.950257227341 xtb: 6.6.1 (8d0f1dd)
N           -1.51688712465498        2.81630834992057        2.22881513116829
C           -1.58012032846345        2.18832486759368        1.14354554306211
C           -2.77797748303515        2.08520388448194        0.24474152331512
C           -3.33674758890647        0.67158899916938        0.32330209865184
C           -4.32190206188251        0.26570806991051       -0.57965100502083
C           -4.85511705915756       -1.00744725847322       -0.53926496696424
O           -5.82334605952097       -1.48213846669487       -1.37288465660410
C           -6.40799668346835       -0.60384524076722       -2.29933928656896
C           -4.39382984374632       -1.92630131052440        0.42961777423071
O           -4.97480323711158       -3.15781224845925        0.39138461629501
C           -4.63516216847759       -4.08839222462381        1.38698928812609
C           -3.42093477474425       -1.52205340260489        1.32269133645269
C           -2.89793770735326       -0.23541985042109        1.26873368330715
C           -2.23993506953407        2.30591214834269       -1.19226226489611
C           -1.29090479829168        1.16804775760495       -1.66545280827390
C            0.00036713878624        1.10422382512952       -0.91034642865050
N            0.63802506991314       -0.06739730486677       -0.55510785007648
C            2.01095956246836       -0.05243819843340       -0.15793490436226
C            2.94926345289491       -0.56348966523536       -1.27484420056891
C            4.37516447869234       -0.45250987434522       -0.83833561576719
C            5.08882494753174        0.71368900581445       -1.04307690550787
C            6.39911862800152        0.82965706840293       -0.60305064639250
C            7.01361055825348       -0.21901341294478        0.05737419014730
O            8.29225160050601       -0.21649154859964        0.52751663904961
C            9.08182058609989        0.92500212387553        0.31590053931367
C            6.29057140676861       -1.41242214990822        0.28118439235105
O            6.97678397960082       -2.39197479419001        0.93386183680187
C            6.34495178091039       -3.62542491148667        1.15671081135143
C            4.98594905808020       -1.50961606069510       -0.16241404672728
C           -0.03734187867433       -1.33044332282326       -0.60734153558150
C           -3.90692571531399        3.08994255128972        0.59475554266161
C           -4.51131271201517        2.77730059186316        1.96212847609912
C           -3.44509368307556        4.54482277893744        0.56458817052727
H           -4.68184154273625        0.96313760893751       -1.31877960721784
H           -6.86796338686436        0.25861252201784       -1.80501609426314
H           -7.18114722428334       -1.18481810156334       -2.79941059367713
H           -5.68384539551841       -0.25401415679486       -3.04326178169137
H           -4.85438490458124       -3.70740362569098        2.39039279262727
H           -5.25456370990960       -4.96179019495646        1.19015681675947
H           -3.57973443294289       -4.37598201293673        1.33142514618484
H           -3.05717104022686       -2.19754039134422        2.08023222454943
H           -2.15220541558313        0.05178429480556        1.99367266573773
H           -3.08324794503120        2.41230226009655       -1.87874294621066
H           -1.69135060101203        3.25034900751092       -1.22334814732192
H           -1.79296399938064        0.20331349313269       -1.61787798542244
H           -1.04910224142004        1.37102916485722       -2.72118524992239
H           -0.71604084004596        1.68474812034480        0.64768621968347
H            0.65339725067493        1.96386891039253       -0.97426611614749
H            2.13566690476915       -0.68099512212921        0.73180917735208
H            2.30767178700084        0.96486426941012        0.10682966871759
H            2.77758552666670        0.04022257980869       -2.16658270703732
H            2.69728535023787       -1.60003494565578       -1.50422853119622
H            4.63039971270370        1.54272027992097       -1.56104900762978
H            6.93384669463902        1.74717476255442       -0.78947667686820
H            8.66174301372540        1.80631601916988        0.81224672887117
H            9.21178659996937        1.13673221610903       -0.75115914340710
H           10.04985067910107        0.69274068702918        0.75657226682341
H            7.08628258193398       -4.24579737891743        1.65846255669693
H            5.46712476153229       -3.52039436425298        1.80332036150593
H            6.05004186343599       -4.10584749139400        0.21747025072957
H            4.42488180792756       -2.41757359844625       -0.00138336749334
H           -0.20365505751423       -1.66135439213498       -1.63878490394796
H           -1.00393761339197       -1.26792448478517       -0.09977052585982
H            0.57251209902457       -2.07528175500447       -0.10035535560742
H           -4.68935399676993        2.96570736058502       -0.16289336743488
H           -3.76438743762909        2.91192497151744        2.73869827343156
H           -4.87831526947502        1.75447044103863        1.99807489505792
H           -5.34208220215242        3.45100677390493        2.15690192703156
H           -2.64825404280421        4.70232915496226        1.28442519949804
H           -3.10056527089931        4.83721600989197       -0.42351015230960
H           -4.27703307856772        5.19181464049041        0.83266440269796
H           -0.61797352450561        2.81742084996663        2.70581424770976
