72
 energy: -4.767614683661 xtb: 6.6.1 (8d0f1dd)
N           -1.54266516464896        2.86287605194511        2.22209860182480
C           -1.61071052014345        2.22885573741939        1.14041112931665
C           -2.81072707782874        2.11261644252581        0.24613099843615
C           -3.35878245423488        0.69597670457994        0.32152621588853
C           -4.34124850426768        0.28576723271467       -0.58238811215962
C           -4.86180727133551       -0.99237969048959       -0.54779010582036
O           -5.82746140228651       -1.47438535592962       -1.38155401040434
C           -6.42000040505505       -0.59797897733315       -2.30405199047381
C           -4.38935998681963       -1.91020548047579        0.41599557556407
O           -4.95771098996222       -3.14788158676685        0.37217130068820
C           -4.60689078241470       -4.07661255394762        1.36564119932358
C           -3.41896788842833       -1.50074124222031        1.30922981428741
C           -2.90883255897574       -0.20953870987811        1.26110675192131
C           -2.28469557945388        2.31416216449539       -1.19662209597830
C           -1.31998224398073        1.15309784281147       -1.64930861755682
C           -0.00326518042511        1.07632368493538       -0.91748399649086
N            0.64310998909320       -0.09219175313676       -0.54446755875035
C            2.02136006017652       -0.07511888112603       -0.15710574668927
C            2.96448018998895       -0.58805814375811       -1.27100410730448
C            4.39162470373985       -0.47232906470684       -0.83783138188965
C            5.10198869094013        0.69588603981682       -1.04367852478446
C            6.41218710344283        0.81655708686366       -0.60395386647726
C            7.03122342842351       -0.22958730522762        0.05648227508370
O            8.31019111517203       -0.22215544833945        0.52611121936073
C            9.09538359720509        0.92181206153467        0.31201393678330
C            6.31221132746401       -1.42460196841822        0.28186040330853
O            7.00199958311754       -2.40127147685760        0.93576759244012
C            6.37466493647909       -3.63652656204245        1.16005188820306
C            5.00742749802545       -1.52618195220950       -0.16127057865355
C           -0.02296604324515       -1.36070965365321       -0.59168296385854
C           -3.94602772910344        3.10323223919602        0.60653435603634
C           -4.52854200138754        2.77896065583016        1.98048006254367
C           -3.49803780137851        4.56150933490078        0.58023842154401
H           -4.70670173283319        0.98196378860319       -1.32012437665209
H           -6.88666662480102        0.25881097486368       -1.80601242875799
H           -7.18824093289983       -1.18377817613862       -2.80565664456778
H           -5.69937601370775       -0.23868022853776       -3.04684730116190
H           -4.82619644814786       -3.69951251805445        2.37076329036189
H           -5.21751663625767       -4.95605315742884        1.16905933007412
H           -3.54896122392105       -4.35345202613978        1.30690993324587
H           -3.04424644758417       -2.17588541764769        2.06117880742214
H           -2.16033150566801        0.08187160092826        1.98098308589049
H           -3.13961887386798        2.43580431620419       -1.87191460961058
H           -1.73070134094933        3.25643486028391       -1.24647521020284
H           -1.79572957889392        0.17499857521394       -1.59482897702524
H           -1.09527238825007        1.35735153291877       -2.71608382346705
H           -0.74896608868402        1.71842784790684        0.65771045200179
H            0.66140389809298        1.93292028859857       -1.00140491527411
H            2.15463018477634       -0.69860252601960        0.73604343461000
H            2.31546430663484        0.94315962738261        0.10334348821118
H            2.79045902074133        0.01123623591754       -2.16441488549641
H            2.71603738932480       -1.62657010102335       -1.49589086519675
H            4.63947567857312        1.52323821292957       -1.56037190483172
H            6.94403465934027        1.73580729862968       -0.79051278918650
H            8.67241076086089        1.80172474679725        0.80805753605181
H            9.22319715606597        1.13357425368749       -0.75546269826547
H           10.06482453167532        0.69439730316582        0.75179943046814
H            7.11793145461788       -4.25498213287017        1.66167525847351
H            5.49724206100420       -3.53324565453358        1.80714909869883
H            6.08017054146859       -4.11860179190372        0.22155876706307
H            4.44933053971809       -2.43537567664198        0.00295036476954
H           -0.18333319306374       -1.70211127047955       -1.62139800507593
H           -0.99194114078056       -1.29727052775527       -0.08983774152306
H            0.58584813857718       -2.10006028597529       -0.07437911767905
H           -4.73534619946493        2.97379177764308       -0.14286776470302
H           -3.77276456704091        2.92080587024002        2.74768365994059
H           -4.88249287726958        1.75162577301144        2.01680635823191
H           -5.36320757343459        3.44347334247725        2.18839809752210
H           -2.69831332282735        4.71955982212080        1.29611428441910
H           -3.16249193175006        4.85955293472900       -0.40877203291381
H           -4.33270703448145        5.20067618844004        0.85778458803318
H           -0.63706188403146        2.86615122371272        2.68356577850403
