72
 energy: 36.588889048359 xtb: 6.6.1 (8d0f1dd)
N           -1.68682663793936        3.12892411357885        2.15069340958454
C           -1.78289401554604        2.47433570848845        1.08049796600285
C           -3.01150531900610        2.28838121095669        0.23910946177341
C           -3.48473697184156        0.84438238484142        0.29610895180184
C           -4.45485131556668        0.40262498753652       -0.60497509924279
C           -4.89906125267100       -0.90303195458159       -0.60040962911479
O           -5.84933687668522       -1.42421371855216       -1.43239743846389
C           -6.49277311639021       -0.56620327304705       -2.33343133682880
C           -4.35529179612731       -1.81206491714531        0.33079681869886
O           -4.85129772329288       -3.08244823576130        0.26534766514499
C           -4.43444513862829       -4.00183776163292        1.24254826911090
C           -3.39392654243062       -1.37015085808775        1.21810883057532
C           -2.96456443868979       -0.05120977797245        1.20209090056288
C           -2.63137648356052        2.49944063039851       -1.21154034809517
C           -1.26911012947363        0.89165850496869       -1.56240783149132
C            0.05389942280263        0.82627245592784       -1.00752806461919
N            0.70405598217605       -0.26692747010658       -0.47459585420327
C            2.10238692236109       -0.22042602525393       -0.14051620548870
C            3.05448516143099       -0.73682428224032       -1.24594131229264
C            4.48799953274760       -0.59110537393308       -0.82388376400010
C            5.17707925057789        0.58829367171108       -1.04209812969088
C            6.48844167486418        0.73689502392278       -0.61008529994061
C            7.13355715151628       -0.29319314217802        0.05159783442723
O            8.41335694323580       -0.25746527784021        0.51639469004013
C            9.17431657441141        0.90098108253651        0.29046203749744
C            6.43790407076340       -1.49924459060730        0.28746113967379
O            7.14927991112506       -2.45712057041796        0.94570436151883
C            6.54747421185988       -3.70197248783395        1.18484938022400
C            5.13102050741128       -1.62731993106164       -0.14770531094415
C            0.06905417228834       -1.55215376418302       -0.49632364934433
C           -4.17948182158190        3.18574939949817        0.69402420882669
C           -4.62577950258779        2.78834663291357        2.09693181968318
C           -3.81237277283041        4.66319360077096        0.68036502450162
H           -4.85984116508637        1.09231921383386       -1.32667692040968
H           -6.99923604761008        0.25600288081165       -1.81616292778727
H           -7.23194164333327       -1.18373514163115       -2.83977910820549
H           -5.79770169985698       -0.15523091968046       -3.07346552282544
H           -4.65356501294925       -3.64959530195693        2.25779360017480
H           -4.99483246122962       -4.91450381962194        1.04774127645683
H           -3.36449212173927       -4.21767444710075        1.16284676774113
H           -2.96061347153669       -2.04027859757842        1.94207805887117
H           -2.21073121283119        0.26687345508672        1.90400975613771
H           -3.52362312861675        2.62688754695287       -1.85033359249677
H           -1.96665667949444        3.33650946523706       -1.39161821088381
H           -1.80605174547692       -0.05001500747529       -1.50417609188866
H           -1.24303213080509        1.26397123524385       -2.58646374560194
H           -0.92813471122161        1.96908042925922        0.62448627322915
H            0.72057399397214        1.70689862290198       -1.14869256114617
H            2.27285650322586       -0.81705993035144        0.76482595295012
H            2.37739446820382        0.80944130404629        0.08681899493719
H            2.87154508977625       -0.16081099744480       -2.15289143132829
H            2.82427150592286       -1.78426245038414       -1.44439500260025
H            4.69522407307263        1.40541765970286       -1.55763085565201
H            7.00168757349424        1.66597549404958       -0.80167054817975
H            8.73557733402500        1.77357448888063        0.78451483659093
H            9.29129763316240        1.11070748986017       -0.77888581232705
H           10.15078634428187        0.69943381517853        0.72601827288006
H            7.30390661128926       -4.30367214152772        1.68809028994442
H            5.67252015239469       -3.60762489448534        1.83565804664204
H            6.25650172976023       -4.19777348228924        0.25261750728776
H            4.59059315644041       -2.54471964346714        0.02893868968860
H           -0.04967183967054       -1.93969469191283       -1.51800844509037
H           -0.91824772489069       -1.47799786427163       -0.03894255895647
H            0.67318462331862       -2.24828016194631        0.08200520040140
H           -5.00537917455739        3.01712531126839       -0.00613115410063
H           -3.82343236908737        2.96638592769787        2.80846420857299
H           -4.90571392877681        1.73811840390711        2.12929454297960
H           -5.47899695229643        3.39525717268764        2.38313891417944
H           -2.98953849468405        4.84074161555122        1.36442855992139
H           -3.53637556035481        4.99762129549756       -0.31541420315730
H           -4.66576961783680        5.24535983228937        1.01404723847137
H           -0.74671449199156        3.16380962905729        2.53669825531765
