72
 energy: 30.014686144128 xtb: 6.6.1 (8d0f1dd)
N           -1.86941346086193        3.53681356373536        1.90987710627084
C           -2.01986698432017        2.83026907506592        0.88012330309960
C           -3.34827648024605        2.58120707433652        0.19563597673594
C           -3.68003829047040        1.08271807654152        0.22223984117439
C           -4.63792604460933        0.58401099605470       -0.65828978044179
C           -4.95795767136581       -0.75769790078717       -0.69030280570062
O           -5.87560215350199       -1.33393047403989       -1.51369001572315
C           -6.61515112694753       -0.51856643096128       -2.37780690357932
C           -4.29517127746385       -1.64178359985613        0.18810339663234
O           -4.67302273508237       -2.95012199237020        0.10290605657625
C           -4.15043688172621       -3.86524366568111        1.03419664642001
C           -3.34094189936038       -1.14363107810741        1.05521430235097
C           -3.03722417035746        0.21228858667141        1.07450410327617
C           -3.26153912001229        3.01951105160081       -1.23040219353497
C           -0.97541560185484        0.40492059173061       -1.59377128856883
C            0.25961728005845        0.42683979547572       -1.12253943228488
N            0.86418053295795       -0.53631959374400       -0.36685916476315
C            2.27105950193776       -0.44802818790237       -0.08577809176362
C            3.20694796620827       -0.99000380530932       -1.18168952882240
C            4.64237844668461       -0.79039669844671       -0.76949238130042
C            5.29314621969657        0.40488165829003       -1.02076791406536
C            6.60900848930814        0.60014889074448       -0.61981151164246
C            7.29963448922282       -0.40055180185530        0.04019706064395
O            8.58664704560117       -0.32359766053647        0.47648184049424
C            9.30517095787301        0.86213306357553        0.25011242419101
C            6.64446268000400       -1.62634217070385        0.29822844847251
O            7.40071643582863       -2.55513008392302        0.94511689983694
C            6.83772348779074       -3.81160916949913        1.22085527548247
C            5.33309072044401       -1.80039727887532       -0.10557449781073
C            0.25323475281916       -1.83380182415144       -0.32292475475254
C           -4.53643856229860        3.31122187243333        0.86799484043084
C           -4.75859461065614        2.80860541360719        2.29190613351658
C           -4.32671614431446        4.81768908539302        0.86899336617910
H           -5.12625080881197        1.26120956364015       -1.33414675202907
H           -7.18623836555462        0.23791507725110       -1.83022707792042
H           -7.30462068953384       -1.18980850289856       -2.88786387090471
H           -5.97485040336904       -0.02823929582059       -3.11744483608977
H           -4.36644069753809       -3.56961968902258        2.06746452766957
H           -4.63748918659081       -4.81683397313632        0.82619637949679
H           -3.07090354639522       -3.98536133519169        0.91217838322522
H           -2.82727838075328       -1.79900217043372        1.74275907314308
H           -2.29425818041199        0.57506665753802        1.76710809670569
H           -4.15995808968705        3.20607360215826       -1.79984878546031
H           -2.37842001811908        3.51134068595314       -1.58333025800472
H           -1.60680666294242       -0.45905689634980       -1.56421256213043
H           -1.27902682819060        1.21385513065972       -2.21030024664438
H           -1.19361629345520        2.34731056914596        0.35931634552380
H            0.84890353571425        1.33799306415969       -1.21376066455744
H            2.46064309056335       -1.00647002624453        0.84320340908226
H            2.53176327378064        0.60392960576973        0.07937372670729
H            3.01496365342385       -0.45269907130048       -2.11863236387636
H            2.99861078891808       -2.04685213270133       -1.33249792420584
H            4.78489345228347        1.20283998290656       -1.54375175178856
H            7.08724441674143        1.54354713265203       -0.83222064646651
H            8.84380059929238        1.72102321757390        0.74904892675608
H            9.40553099403171        1.07413892003592       -0.81932894656741
H           10.29188955189248        0.69091602433885        0.67656467661958
H            7.62146051349269       -4.37578518892872        1.72426068724905
H            5.96900815220318       -3.73341301473139        1.88365054759605
H            6.54918499521004       -4.33479249544455        0.30299493891636
H            4.82450658472420       -2.73265168068954        0.08234684826937
H            0.20457134870254       -2.30512757833386       -1.31480978861230
H           -0.77236673840836       -1.75359511459111        0.04596115046979
H            0.84462834337198       -2.43391549947630        0.36471907309455
H           -5.42175455299892        3.06459173575644        0.27271243891262
H           -3.90023985716454        3.04959670106276        2.91140753257127
H           -4.92010837309641        1.73335373972658        2.31144551684612
H           -5.63159826905052        3.29469686848009        2.71119606041180
H           -3.46684417491124        5.06877391192949        1.48462964497843
H           -4.16303500829836        5.20824340278242       -0.13398216124721
H           -5.21076894403770        5.28181134166565        1.29030018972018
H           -0.92044145597621        3.65076170237842        2.27053274606151
