72
 energy: 29.518831547761 xtb: 6.6.1 (8d0f1dd)
N           -1.89166891120074        3.57708653351415        1.89710122854053
C           -2.04617681281728        2.87351340676189        0.86451944603359
C           -3.38034711812934        2.61183738029839        0.19494888999075
C           -3.69083246317780        1.10720050979162        0.20979973606498
C           -4.65399392250886        0.60217705649014       -0.66359526202174
C           -4.96325711866882       -0.74305845783307       -0.69763563441170
O           -5.88094398946928       -1.32900844087590       -1.51972049296706
C           -6.62708833906468       -0.51542078979210       -2.38130812929663
C           -4.28987348818360       -1.62354275494113        0.17734588722530
O           -4.65429509573829       -2.93695989854661        0.08492894893805
C           -4.12232808292962       -3.85109964919127        1.01261927922353
C           -3.33596665035959       -1.11976397441800        1.04080760125258
C           -3.04175131576731        0.23877301693835        1.05984587395785
C           -3.31136417455330        3.06789018285552       -1.22441922633602
C           -0.94296014594486        0.36229645375128       -1.60207176113512
C            0.29070775129870        0.40133881148805       -1.12999782757987
N            0.88640492740600       -0.55713239893163       -0.35423316426315
C            2.29223262294514       -0.46666786126080       -0.07626456261118
C            3.22508424443876       -1.01224304509332       -1.17406796674760
C            4.65908243025054       -0.81086054088999       -0.76550611319091
C            5.30516415942986        0.38637046895254       -1.01870607398853
C            6.62115208950889        0.58591415662642       -0.62045388034507
C            7.31673227931774       -0.41179137116962        0.03915556806391
O            8.60397801065010       -0.33001037156004        0.47388684939367
C            9.31832507939361        0.85831269276315        0.24626339761120
C            6.66542418816817       -1.63952715827750        0.29902369289587
O            7.42578778958401       -2.56491591411315        0.94532931721522
C            6.86674684391669       -3.82257350210687        1.22418928812626
C            5.35381080890145       -1.81784535051963       -0.10185835336428
C            0.27477768306337       -1.85755216239509       -0.30683918585612
C           -4.56954689150617        3.31866415521061        0.88882717111141
C           -4.76956963634503        2.81034436423381        2.31359005427115
C           -4.37780249541249        4.83057566244108        0.88979370446311
H           -5.15163827838878        1.27775923384628       -1.33476743596166
H           -7.20422941568686        0.23442612975088       -1.83073570779922
H           -7.31161517988488       -1.19063218102366       -2.89301476565037
H           -5.99213293941964       -0.01633519466612       -3.12015596205000
H           -4.33842605053211       -3.56085865161415        2.04744756785575
H           -4.60211163831068       -4.80617105036532        0.80284305390040
H           -3.04200467257524       -3.96157445203965        0.88763741262714
H           -2.81380917806565       -1.77426641362822        1.72342818832632
H           -2.30085887403441        0.60575693043490        1.75237334885716
H           -4.21181293279058        3.26792324281412       -1.78352983023167
H           -2.42003015932584        3.52312909112336       -1.60148994353333
H           -1.57879199640687       -0.49742624254486       -1.57009639199823
H           -1.25994882864975        1.16906462534477       -2.20644701930046
H           -1.22550616342956        2.38572016759440        0.33132812047443
H            0.87670500811280        1.30979608594606       -1.22732918130781
H            2.48636164504307       -1.01900370907901        0.85375791010063
H            2.55028083948551        0.58663457750547        0.08379973327329
H            3.02901999400178       -0.48073321552607       -2.11399635812818
H            3.01592043503742       -2.07055258059753       -1.31963172557561
H            4.79416895505267        1.18271400521758       -1.54177885844567
H            7.09540613208333        1.53080904816659       -0.83504078442682
H            8.85479290997773        1.71579934630602        0.74565368162139
H            9.41683348278116        1.07021952633282       -0.82327854275577
H           10.30582181001450        0.68875093347621        0.67174981438588
H            7.65347411930744       -4.38243745078571        1.72735304861226
H            5.99869927138341       -3.74593360792349        1.88814956714693
H            6.57864271362169       -4.34824123592365        0.30767840709076
H            4.84801310254314       -2.75108360967075        0.08764965536764
H            0.23203439085158       -2.33897845944485       -1.29515102871550
H           -0.75594581223893       -1.78030849980303        0.05371980970155
H            0.85896378644483       -2.45725696485340        0.38886213543539
H           -5.46117775797730        3.06782467642793        0.30167166209795
H           -3.90433227801311        3.05696435512632        2.92325194104622
H           -4.92119603903466        1.73270659914231        2.33016683491844
H           -5.64510046090091        3.28611136761254        2.74316981689409
H           -3.51482926229002        5.09055073541109        1.49780254795132
H           -4.22600153371551        5.22678318257540       -0.11363502146349
H           -5.26363583384583        5.28410143280028        1.31948798126895
H           -0.93477605834025        3.69752830818794        2.23752317563565
