72
 energy: 35.766345057855 xtb: 6.6.1 (8d0f1dd)
N           -1.79699587141136        3.34591052619606        2.05347234886962
C           -1.91087059604056        2.67537116381128        0.99081496620484
C           -3.18190585055808        2.43882743172978        0.21288069256111
C           -3.57924676938143        0.96546384000108        0.25835529721155
C           -4.54525918688115        0.49614539715433       -0.63041774736929
C           -4.92739313005333       -0.82887611946806       -0.64449595808937
O           -5.86458307275908       -1.37705113656364       -1.47060159038907
C           -6.55450016345274       -0.54058930036070       -2.35555016524005
C           -4.32293227021317       -1.72861178347466        0.25848493390425
O           -4.76262005891527       -3.01871644534815        0.18262992931856
C           -4.29139006238757       -3.93658161562621        1.13831314473270
C           -3.36629526661550       -1.25788721892200        1.13700943660513
C           -3.00127843028600        0.08135038924918        1.14040341679442
C           -2.99160279511507        2.79296675116690       -1.22881134214024
C           -1.08663173610456        0.60674138479577       -1.55023869557115
C            0.15907921149417        0.60941146978901       -1.06706781801826
N            0.78832530944316       -0.41723596342040       -0.45069171425521
C            2.18582679065189       -0.34062449721118       -0.11905325044134
C            3.13646323090213       -0.86361672472518       -1.21840529854664
C            4.56966160476918       -0.69329736680720       -0.80499213555371
C            5.23833921960965        0.49600048087609       -1.03593706241288
C            6.55074725356309        0.66854962759841       -0.61542764973665
C            7.21809316004221       -0.34771379518443        0.04631611654383
O            8.50092750466252       -0.28898376076885        0.50325221668535
C            9.24021679561588        0.88186736585576        0.27077370519571
C            6.54298686873080       -1.56290120960428        0.29327723509164
O            7.27483263370721       -2.50620533157857        0.95044136013889
C            6.69322098287221       -3.75759678566823        1.20394879221662
C            5.23418219276063       -1.71440729999489       -0.12935445600881
C            0.15712244386563       -1.70401296181221       -0.41819849085193
C           -4.36832701487573        3.25048013605940        0.77775736313372
C           -4.70147490703265        2.79615926904873        2.19368263317469
C           -4.07307828065613        4.74417990348768        0.77000589978597
H           -4.98988420074416        1.18027647185584       -1.33172640748717
H           -7.09382862955840        0.25118552457743       -1.82408353634561
H           -7.26893230363995       -1.18564064454072       -2.86386375536292
H           -5.88476827500129       -0.08954741863432       -3.09546135931622
H           -4.50903014017636       -3.61063837804825        2.16302876423942
H           -4.81287317643901       -4.87180212971398        0.93917881999864
H           -3.21498245862713       -4.10393610551961        1.03796692276989
H           -2.89310011629099       -1.92092853345999        1.84341423478904
H           -2.25099081990050        0.42104710033317        1.83590185800540
H           -3.87642215558269        2.91521891980665       -1.84187377444186
H           -2.16879207518080        3.42588129450619       -1.50817841929224
H           -1.71782807301680       -0.26851881184633       -1.51902490309097
H           -1.26778091982228        1.28689106083632       -2.35579719951737
H           -1.05793606139192        2.18430044382158        0.50900846368595
H            0.77063831995939        1.51804374092316       -1.19105078472921
H            2.36692373259727       -0.92024610220078        0.79538520394250
H            2.44648844677467        0.70154820208820        0.07888181736729
H            2.94245858197858       -0.30636890991765       -2.13718466230968
H            2.91254083036831       -1.91600030336342       -1.39146597693140
H            4.74026420649159        1.30304703303698       -1.55333833158006
H            7.04688544480065        1.60537993394901       -0.81601008216385
H            8.78961015872936        1.74844257188356        0.76508051373465
H            9.34801997110286        1.09143348733528       -0.79954240349622
H           10.22241084038439        0.69867550451803        0.70165442236209
H            7.46241153501056       -4.34260012300818        1.70746457307946
H            5.82084605048510       -3.67171486917591        1.85954844403360
H            6.40397584002738       -4.26607896329572        0.27792224935626
H            4.70819024906556       -2.63847166359394        0.05528611805166
H            0.06354321975480       -2.13663926133626       -1.42534232979973
H           -0.84454799661784       -1.61409330241366        0.00578331784477
H            0.75353791866659       -2.35830216158230        0.21520327988384
H           -5.22289982446559        3.04651257363181        0.12332993317654
H           -3.86892220010199        3.00520313773375        2.85837282652396
H           -4.92027170003041        1.73083078091383        2.22083489186676
H           -5.56749680656406        3.34900745136168        2.54443573472091
H           -3.23160689525178        4.95173150309416        1.42337168291043
H           -3.84942483535397        5.10685789518606       -0.23071046908960
H           -4.94237572677725        5.27372213595461        1.14468152430366
H           -0.83938900883549        3.40658630930283        2.40118105115051
