  25
        -42.10591714
 C          3.2466231347        1.1346747393        0.0276646640
 N          2.2864465155        0.0639175509       -0.0031009665
 C          2.5511229213       -1.2402091858       -0.0003810544
 N          1.3944656920       -1.9432416347       -0.0074601252
 C          0.3606788577       -1.0554952631       -0.0126590952
 C          0.9162283218        0.2179006596       -0.0119222440
 C          0.1192170395        1.4057346459       -0.0247710287
 O          0.4957441993        2.5558923551       -0.0346710052
 N         -1.2893604855        1.0902766478       -0.0023605494
 C         -2.1460103912        2.1202004936        0.0184569195
 C         -1.8560087923       -0.2172958944       -0.0002127533
 O         -3.0448818929       -0.3802711110        0.0083568716
 N         -0.9675848040       -1.2892460934       -0.0094051694
 C         -1.4975190458       -2.6413206285       -0.0067204036
 H          3.7394282373        1.1719341235        1.0001539533
 H          4.0008071873        0.9868382544       -0.7439868274
 H          2.7263943810        2.0768219134       -0.1394789934
 H          3.5314612470       -1.6725552252        0.0028123964
 H         -1.7292383724        3.1111416758        0.0035511443
 H         -3.2166678530        1.9320774144        0.1283716434
 H         -4.9547914983        1.8987849265        0.6301456680
 H         -1.1608562344       -3.1781873993        0.8801337442
 H         -1.1911922473       -3.1711592813       -0.9087649665
 H         -2.5841184028       -2.5724336039        0.0116525215
 H          1.3243471615       -2.9503843893       -0.0109799447
