  25
        -42.17279046
 C          4.8682081674        0.2145977826        0.1401186892
 N          3.9841867063       -0.6292602339       -0.1340473386
 C          3.1464685160       -1.5869998060        0.0061843110
 N          1.8205873164       -1.4336081730       -0.0059268818
 C          1.1730459166       -0.2165481670       -0.0177836934
 C         -0.1618316964       -0.0107418658       -0.0114331386
 C         -0.6989537777        1.3869604603       -0.0188252563
 O         -0.0676909288        2.4107667742       -0.0245671334
 N         -2.0609650288        1.2391045828       -0.0073891824
 C         -3.0102322988        2.3251168393       -0.0117216728
 C         -2.4281017121       -0.0948349405        0.0098695783
 O         -3.5330885606       -0.5511983426        0.0315771318
 N         -1.2422761194       -0.8433926079        0.0051471120
 C         -1.2917606687       -2.2829505784        0.0185073967
 H          5.1524229380        0.4438722695        1.1634536827
 H          5.3614626665        0.7451731528       -0.6639320358
 H          1.8166930712        0.6485372780       -0.0350570964
 H          3.5317188709       -2.6021359176        0.0104314170
 H         -2.4800744781        3.2376655875        0.2542030764
 H         -3.4551315486        2.4358716465       -1.0019280775
 H         -3.8011032211        2.1167955052        0.7077373416
 H         -0.8204789587       -2.6864465041        0.9171710363
 H         -0.8351931408       -2.7020992260       -0.8806729929
 H         -2.3477362609       -2.5583501207        0.0296677674
 H          1.2435381978       -2.2665416223       -0.0054127631
