72
 energy: 20.643790711544 xtb: 6.6.1 (8d0f1dd)
N           -1.64040943969559        2.96603941871995        2.27794669417414
C           -1.67621279686054        2.19200132080095        1.28447885548647
C           -2.82832306579238        2.07216560920850        0.31995992521638
C           -3.38402183856898        0.65873049106178        0.37236788307353
C           -4.32324614447985        0.22857876903054       -0.56807836259102
C           -4.84624285873166       -1.05301726987895       -0.54007427038278
O           -5.76585668252171       -1.54937519122025       -1.42265442707617
C           -6.27864707265901       -0.68595925661035       -2.40388374818828
C           -4.44670909574277       -1.94469395940121        0.47587453634886
O           -5.02672424031425       -3.18273684740342        0.43138863422207
C           -4.70975450907396       -4.09429483823905        1.44950615726527
C           -3.52013449394903       -1.51651805149334        1.40878158743654
C           -2.99754563695902       -0.23066752968516        1.35511273033763
C           -2.25429337709199        2.32079272391003       -1.09511182453495
C           -1.33329163576912        1.20225865668517       -1.65296131872993
C            0.01772887878310        1.05873907709259       -0.98449160853194
N            0.83673408680345       -0.08129583110995       -0.58883736178925
C            2.18250355592192        0.23979414123797       -0.27446777928553
C            3.03420133501862       -0.26066287329961       -1.44837996386720
C            4.43822155425011       -0.30125554850142       -1.00421590836882
C            5.23785785249175        0.80031739877565       -1.16750700521032
C            6.53394631350457        0.80372861468298       -0.67732081571505
C            7.01885869770241       -0.30074207925097        0.00385022498339
O            8.28389579830115       -0.41792498938970        0.51378681767086
C            9.16469986705564        0.65380735761618        0.29751528259625
C            6.17083189794621       -1.41027903777401        0.22708721743100
O            6.74536285058742       -2.42726736702702        0.93472937465302
C            6.00705415219853       -3.59033589701467        1.17273902698367
C            4.88725621327239       -1.39198237166381       -0.27539023921653
C            0.78058232407439       -1.58574708860219       -0.49076389084156
C           -3.98787206968216        3.06182387934185        0.62313783576972
C           -4.59293638115827        2.76673196079107        1.99495052361007
C           -3.55279001430910        4.52414057871921        0.57097257503519
H           -4.63115580757483        0.90842420595850       -1.34601200971657
H           -6.76359853217811        0.19224964202559       -1.96448811757663
H           -7.01744939910570       -1.26943133648608       -2.95203964420568
H           -5.49875983050356       -0.35189682360853       -3.09579962131695
H           -4.98194432170269       -3.70575421898610        2.43723825141874
H           -5.29609283079308       -4.98718745955790        1.23780000062401
H           -3.64420590686764       -4.35446850646330        1.44231963681269
H           -3.19850706508759       -2.17435710616837        2.20069029149696
H           -2.29536261985618        0.08140928146724        2.11113249911214
H           -3.09179743292582        2.44091674194343       -1.79277986843020
H           -1.71738221174923        3.26843349472168       -1.07376667246742
H           -1.86134755096166        0.26101299419836       -1.56413885539650
H           -1.20782578501508        1.43066085337972       -2.74279258361265
H           -0.81722416454394        1.57494071227581        0.93928342522384
H            0.57613222038082        2.00354474933398       -1.12508900929668
H            2.45459067167457       -0.31049919576070        0.63874060175470
H            2.32338744437748        1.30053679183226       -0.08308034498671
H            2.86350973274911        0.40711410736164       -2.28959579150496
H            2.68987782038725       -1.24963558922911       -1.73441937711144
H            4.84161884639360        1.65202237900212       -1.69769623850515
H            7.15056107751309        1.67172720919282       -0.84757989349371
H            8.80036281004969        1.57573972511472        0.76512275491257
H            9.31956722452724        0.83529229575631       -0.77263658168070
H           10.10582909886820        0.34958211896913        0.75663296302863
H            6.68677898183011       -4.27112317664033        1.68694009835051
H            5.14535541022737       -3.38739791383905        1.81362129085300
H            5.66830854091059       -4.05003345535819        0.23874955890057
H            4.18819535290087       -2.19720594030812       -0.11237562558768
H            0.92504649715191       -2.16270185496198       -1.42258394471368
H           -0.20109763904618       -1.87291476314687       -0.15303131843730
H            1.45869039946591       -2.01617531476499        0.25676981202362
H           -4.76611450246613        2.91301896761074       -0.13710575022989
H           -3.84647174480587        2.93240846026697        2.76241978772637
H           -4.93853254026035        1.73703823399262        2.05815697696988
H           -5.43167445950243        3.43092660080089        2.18776244004466
H           -2.74183964429439        4.67745584374581        1.27328481865165
H           -3.23025007332978        4.80566304120017       -0.42661687402404
H           -4.38791131698589        5.16685831981725        0.85048585771019
H           -0.75393098498044        2.91806956503574        2.77388133066198
