72
 energy: 51.665892245075 xtb: 6.6.1 (8d0f1dd)
N           -1.71133668195243        3.05888545014112        2.24915762145138
C           -1.77880879768173        2.19519743230274        1.33941035019072
C           -2.92148380399775        2.08146358883211        0.37360232455029
C           -3.45096639682268        0.66006475359498        0.40951609989082
C           -4.32687226776027        0.20433377674484       -0.57824915391684
C           -4.84858108230230       -1.07589474223808       -0.54577884743915
O           -5.69943277628361       -1.60075304145245       -1.47081762837537
C           -6.16082209043287       -0.77028236860691       -2.50585590756895
C           -4.48861286467403       -1.94565114688135        0.50811736106591
O           -5.04706114902966       -3.18493142077920        0.45880356666542
C           -4.75591207286056       -4.09010569395469        1.49273524674387
C           -3.61802074524808       -1.49247991063494        1.48129911774822
C           -3.10848117443239       -0.20189548548059        1.43190763705283
C           -2.33900587561958        2.38137749467371       -1.02210606511210
C           -1.41311959033461        1.29182538046187       -1.59279823479407
C           -0.00278480240745        1.28841538003556       -1.06444672835128
N            0.72847614994039        0.29763173894976       -0.75020609883924
C            2.13908578006723        0.54613974775547       -0.42216548518513
C            3.04017979017609        0.03705633556371       -1.57052522302381
C            4.44204512476792       -0.12895984153045       -1.09337851186240
C            5.36170133520163        0.86823807953261       -1.28011757120744
C            6.64496892084857        0.74870388979400       -0.76927336221281
C            7.00123161558530       -0.38426917680190       -0.06260695238099
O            8.23470839361938       -0.60520891287065        0.47734947815474
C            9.22107078790462        0.37660775486957        0.26919481959021
C            6.04529813903197       -1.40090723384164        0.16778910670010
O            6.52597614884275       -2.44649924518784        0.90272049004755
C            5.69919912756901       -3.53895322827907        1.18357280854714
C            4.77585742856800       -1.25508568269501       -0.34989558795232
C            1.79590116135833       -2.12398103514024       -0.26965914671368
C           -4.09771582275180        3.04566127452414        0.67829191192845
C           -4.67822072889917        2.75273032744931        2.06107000592883
C           -3.70956548202863        4.52114474646395        0.59619032972248
H           -4.60498384692056        0.86895475930165       -1.37980323169002
H           -6.68510826145385        0.11415508170280       -2.12677049085735
H           -6.85446197624816       -1.37970306069005       -3.08342625903981
H           -5.34095932642128       -0.44791124096220       -3.15474916226360
H           -5.08011487808350       -3.70586172899940        2.46559732858266
H           -5.31603745930286       -4.99468728902274        1.25967824248099
H           -3.68653591565462       -4.32775117965960        1.53098382201554
H           -3.32783699231560       -2.13295468438075        2.29857615221834
H           -2.44818924676355        0.12958702753389        2.21791532814949
H           -3.17915835578434        2.49827360563235       -1.71231259265389
H           -1.82797904028996        3.34449487306837       -0.98758921102818
H           -1.87462163024314        0.31726468011181       -1.48371819497193
H           -1.31354523726574        1.50085218115171       -2.67217130849158
H           -0.95517609395587        1.52109393813734        1.06303316739536
H            0.39606950166351        2.31354142822290       -1.02845645753705
H            2.51312791622950        0.08483026251562        0.50567170624809
H            2.25581586565741        1.61837832672180       -0.26933331482075
H            2.97178305428581        0.74306378624694       -2.39056862724471
H            2.66454068083871       -0.91267447129221       -1.93243326297682
H            5.05609760375104        1.74264133489080       -1.82953886767678
H            7.34366457002224        1.55094858838729       -0.93704955060594
H            8.93867357149064        1.33918708417091        0.71372363739219
H            9.42138912338378        0.52653835454493       -0.79800437950375
H           10.11747825804642       -0.00483366399995        0.75748757205118
H            6.32440817290104       -4.25752155710623        1.71440032468773
H            4.86432836375459       -3.25171992443364        1.82739177454943
H            5.31668457479045       -3.99909485485674        0.26819289501129
H            3.99021700947441       -1.96696906413254       -0.19585573277703
H            2.18702761091676       -2.62258979874852       -1.10600658468041
H            0.75227982255247       -2.33710689216730       -0.25999208493761
H            2.27816098084770       -2.19367322152968        0.68658488186195
H           -4.87831136209926        2.85547663659383       -0.07016743882546
H           -3.93063141906741        2.95637063488587        2.82082234958098
H           -4.98781913294096        1.71298703468704        2.14558874863498
H           -5.53913616217280        3.38964811270532        2.24833087278134
H           -2.88525447223413        4.71410474133711        1.27364405454774
H           -3.42682469373525        4.80715487143811       -0.41292792430984
H           -4.55930441676892        5.13463684694925        0.89292988704796
H           -0.85951718944210        3.06656340822564        2.80773305937708
