72
 energy: 56.299433548746 xtb: 6.6.1 (8d0f1dd)
N           -1.70734185031666        3.02560335523258        2.29771150238956
C           -1.73342681058364        2.22325669202444        1.32526025724083
C           -2.86625713611945        2.07929208609888        0.34579602628073
C           -3.41011249948474        0.66013457543331        0.38932221432491
C           -4.32575410360376        0.21823084093158       -0.57061313964736
C           -4.84525579827027       -1.06505635071773       -0.54649550696760
O           -5.74213347591044       -1.57151518913018       -1.44469615528653
C           -6.23453311846128       -0.71678655928267       -2.44419601718651
C           -4.46391947382901       -1.94698621893091        0.48754951991262
O           -5.04005656163316       -3.18574370951019        0.44359393477332
C           -4.72670090971973       -4.09280270360648        1.46736324951669
C           -3.55713518518912       -1.50808351878218        1.43561553121695
C           -3.03919985229552       -0.22037238028632        1.38510155438268
C           -2.28345687454770        2.34174412669256       -1.06036247605112
C           -1.36387639279223        1.22747919659465       -1.61627610605058
C            0.03715071855699        1.12013353062860       -1.03182759890518
N            0.76531774104464        0.13270661543450       -0.58377941352195
C            2.17438450944070        0.37062129250110       -0.32151729808987
C            3.03226424028282       -0.14418989792483       -1.49688705187080
C            4.44093112554952       -0.23893996989917       -1.04349310451760
C            5.28705111483551        0.82551064514374       -1.20965938881316
C            6.57970095300980        0.78517210523170       -0.70857449232872
C            7.01627227251762       -0.33364434839745       -0.01841746142142
O            8.27313842382308       -0.49244194928874        0.50288866007861
C            9.19056050805291        0.55064277777313        0.28705667458825
C            6.12392333967731       -1.40976197718785        0.20529107521828
O            6.66262668784763       -2.43776324502863        0.92637980507366
C            5.89128910729168       -3.57692557677190        1.17882581961053
C            4.84492023846332       -1.34527016904843       -0.30931970783465
C            1.18205208817412       -1.86985808991928       -0.41131073063513
C           -4.03319093370536        3.05735273086552        0.64217685457409
C           -4.62835597332152        2.76233910701622        2.01817331819861
C           -3.61354727365871        4.52399951115565        0.57941799877453
H           -4.62107647543714        0.89328582626042       -1.35814628262342
H           -6.73297359281776        0.16439738975054       -2.02540091834456
H           -6.95745756172868       -1.30692661042839       -3.00612895759428
H           -5.43838055146921       -0.38630380263804       -3.11883427730310
H           -5.01787338593736       -3.70361848793484        2.44925917904970
H           -5.30097517259653       -4.99207610120915        1.24963162161622
H           -3.65862216972768       -4.34153830394220        1.47596076724463
H           -3.24536907380038       -2.15927569642396        2.23679874249475
H           -2.35207600825994        0.09891791530243        2.15179873809889
H           -3.11914617661309        2.46503507612009       -1.75933347041798
H           -1.75350985384676        3.29305470733034       -1.03178995847131
H           -1.88657862917767        0.28139751201881       -1.52306177213885
H           -1.27384627302714        1.45139619183128       -2.71563635519593
H           -0.88328517521941        1.56444544753371        1.05158936392221
H            0.50817505323820        2.11246961388493       -1.07373069623534
H            2.49979251454355       -0.16332606339386        0.58412390856117
H            2.32915290161047        1.43542259408976       -0.15086076229426
H            2.90013976028516        0.53661191841688       -2.33274740051363
H            2.68050900929017       -1.11857634139576       -1.81008379093471
H            4.92250670591344        1.68688950787500       -1.74650848019501
H            7.22697807037030        1.63216108542868       -0.87537406843250
H            8.85287049429714        1.48818193102838        0.74495407515324
H            9.35848401439714        0.72104297675149       -0.78323565864281
H           10.11888208490750        0.22016091243207        0.75456070505899
H            6.55116605355395       -4.27312884854478        1.69891794650118
H            5.03890770009728       -3.34108215707448        1.81982235389676
H            5.53727669915574       -4.03514707088728        0.25050637337495
H            4.10858478571244       -2.11748797049610       -0.15066384941701
H            1.37920654176760       -2.38520847863266       -1.32458946870511
H            0.17194025190941       -2.05233338910401       -0.13656168305691
H            1.82946519755295       -2.10065792495679        0.40159941840139
H           -4.81091003435893        2.89301090954997       -0.11480983738396
H           -3.88113528182570        2.94215059623341        2.78233352600613
H           -4.95987330902616        1.72843385315512        2.08878199512778
H           -5.47420726768630        3.41708605053918        2.20991681053496
H           -2.79790785023103        4.68913996588082        1.27329793949375
H           -3.30477708344942        4.80571091110430       -0.42248885885777
H           -4.45297590309046        5.15750738298634        0.86567151619027
H           -0.81613655192580        2.97823781245920        2.79042676065447
