72
 energy: 44.076561326586 xtb: 6.6.1 (8d0f1dd)
N           -1.69725784452266        3.11947603776590        2.20240380799969
C           -1.77875983014728        2.22472152514410        1.32880068900259
C           -2.94443136869188        2.08994211784376        0.38508474805850
C           -3.46941191795120        0.66367866227286        0.42102635782758
C           -4.32630808113026        0.19899181997432       -0.57937861100085
C           -4.83751755733755       -1.08349056757013       -0.54870025896719
O           -5.66630161525918       -1.61805002910973       -1.48772462392154
C           -6.11517077668195       -0.80342368865973       -2.54145378836374
C           -4.50355071272121       -1.94740269881858        0.51848844418329
O           -5.05651751257719       -3.19103576619694        0.46223830916858
C           -4.77592201953324       -4.09060040570007        1.50370723629826
C           -3.65590346663103       -1.48209198723132        1.50628122010319
C           -3.14899036725901       -0.18961072926831        1.45841116494204
C           -2.37883863267328        2.41262033524593       -1.01535740370022
C           -1.43324492843565        1.35190123388075       -1.59112994308978
C           -0.02571506340492        1.40590969025386       -1.09270881595550
N            0.70160465727666        0.40439896758752       -0.83343072692179
C            2.09085294308690        0.63863069639827       -0.47743215450515
C            3.03146133576776        0.13885726923929       -1.60498413027794
C            4.42789250960162       -0.05692851937614       -1.11427225785722
C            5.39495701268299        0.89480577805716       -1.32148521655851
C            6.67289334105007        0.72532493328867       -0.81220302590816
C            6.98590312813884       -0.41060708329031       -0.09158641862840
O            8.20461280515034       -0.67409883354380        0.45774417744579
C            9.22746234104248        0.27144150400795        0.25822478274165
C            5.99791185630715       -1.39341727103027        0.14173810443135
O            6.44240187629475       -2.44819564247277        0.88553694958514
C            5.58539694904306       -3.51498438410327        1.18182992704777
C            4.73556846868882       -1.19119659607475       -0.37113206832999
C            2.10380127018391       -2.36123223020366       -0.17402174148833
C           -4.12881934876022        3.04017472790924        0.70458539045322
C           -4.69868684434167        2.74311419060527        2.09102110213109
C           -3.76405921713104        4.52085103459934        0.61144975036257
H           -4.59441363636034        0.85467487473460       -1.39253366598036
H           -6.65716753849033        0.08081474600279       -2.18654537566888
H           -6.79112896235107       -1.42712270831152       -3.12503244053559
H           -5.28367550714363       -0.48478634749057       -3.17665868176632
H           -5.11990491330807       -3.70718487085504        2.46975883377414
H           -5.32694171159169       -4.99647514904721        1.25551306621725
H           -3.70531791670274       -4.32010697735911        1.56253661737113
H           -3.37825600404032       -2.11461409393886        2.33373989897665
H           -2.50507162748686        0.14719333019582        2.25609370963081
H           -3.21938641143534        2.53144132615219       -1.69919015535902
H           -1.87077681364075        3.37681070212338       -0.96255115541991
H           -1.84078900942207        0.35457576792827       -1.46559859775026
H           -1.33731284082110        1.54325769207843       -2.65737327014935
H           -0.97864643621162        1.50795202304098        1.08109552639975
H            0.35217613478092        2.43896160541474       -1.01996258164978
H            2.41699818196787        0.16054648108658        0.44973735103821
H            2.21330643284410        1.71472981212300       -0.31843858360956
H            3.00587398657434        0.86553711975668       -2.40986414510941
H            2.64172809725286       -0.79729594334126       -2.00227135292587
H            5.13226186161739        1.77684099836889       -1.87775723152063
H            7.40356290502573        1.49823816578478       -0.98227443962055
H            8.97757144293911        1.24576447932031        0.69622764125715
H            9.44668907770008        0.40874754922165       -0.80664817473745
H           10.10247697450740       -0.13848759372820        0.75942478486562
H            6.19128962962146       -4.24575913999878        1.71701451230889
H            4.76325978574369       -3.19971511078102        1.82997305745104
H            5.18623541240867       -3.97753969188367        0.27477808969778
H            3.90934443039557       -1.86106716929019       -0.21716824783667
H            2.51727807241225       -2.92597810766712       -0.95609540447010
H            1.08260883386279       -2.17004110886739       -0.35006186470409
H            2.42031320608294       -2.52033120005534        0.83331983447679
H           -4.91077887944548        2.83175426556245       -0.03713763184864
H           -3.95440488291763        2.96590540103003        2.84924661382888
H           -4.99178703103891        1.69944317597881        2.18205331295826
H           -5.57246364429086        3.36384484700876        2.27134548105752
H           -2.93431505681783        4.73708641353156        1.27704256808461
H           -3.49926883831588        4.81093434727992       -0.40194992291013
H           -4.62078596086842        5.11844537391039        0.91691671755832
H           -0.88415032640156        3.11841348318401        2.81851166392003
