72
 energy: 54.170251799834 xtb: 6.6.1 (8d0f1dd)
N           -1.71985486188413        3.01889425874317        2.29322404915471
C           -1.76693093019353        2.21054165885114        1.33436116193281
C           -2.90088073836668        2.08331513259742        0.36305720817687
C           -3.43577134023379        0.66247379980763        0.40202719938514
C           -4.32647024437683        0.21086536240553       -0.57542695615542
C           -4.84906749226212       -1.07052988000308       -0.54526239758915
O           -5.71780141282375       -1.58681169313390       -1.45917712408249
C           -6.19014446817947       -0.74874439081352       -2.48288302139263
C           -4.47855860328575       -1.94587408544908        0.49988891450295
O           -5.04444852863003       -3.18510179334738        0.45323947350796
C           -4.74377878465971       -4.09043443583698        1.48265497968518
C           -3.59380796087720       -1.49681128734356        1.46331977275049
C           -3.08128600152314       -0.20742044872485        1.41327679103410
C           -2.31859689082622        2.36732230677491       -1.03809636183069
C           -1.39769458466625        1.26246749724322       -1.59838183268100
C            0.00907923741702        1.21870748118317       -1.04973007922041
N            0.73649768416229        0.23258532482009       -0.70073965607778
C            2.15315961061917        0.47760710177756       -0.38777431534306
C            3.04005424412101       -0.03584465568501       -1.54673431030183
C            4.44470249377708       -0.17597590033859       -1.08056125437962
C            5.33354829014977        0.85169293004027       -1.25281799867287
C            6.62155332519285        0.76677292957999       -0.74389205509475
C            7.00874663896621       -0.36368403211886       -0.04421217815174
O            8.25321213374773       -0.56203211344083        0.48867089393652
C            9.21191314565445        0.44584382116872        0.27790384235126
C            6.07631839008829       -1.40494092142471        0.18429164592511
O            6.58002587589126       -2.44474971675907        0.91375200858777
C            5.77571321827487       -3.55802380453843        1.17932521238716
C            4.80252696489886       -1.29208234290494       -0.33386130125914
C            1.56628065783002       -2.00721591389804       -0.31706211940377
C           -4.07376578854032        3.05147614088755        0.66337046631533
C           -4.65836130068490        2.75728767792611        2.04376459729740
C           -3.67175189010225        4.52289634189357        0.58984514516102
H           -4.61038582787148        0.87966240159391       -1.37197094404316
H           -6.70327051319518        0.13539672039144       -2.08863322037884
H           -6.89565743749960       -1.34954349243711       -3.05639347384338
H           -5.37858295783174       -0.42375549606534       -3.14138840447501
H           -5.05476785684251       -3.70316060274542        2.45921300766829
H           -5.30810413097517       -4.99464706407812        1.25693736632082
H           -3.67409570250766       -4.33085231477544        1.50888433664681
H           -3.29443121227557       -2.14121099001652        2.27451367741049
H           -2.41065192726344        0.12026964076999        2.19119717020320
H           -3.15580848552612        2.48709950992865       -1.73241275283558
H           -1.79781744756692        3.32476864725939       -1.00830295659476
H           -1.89720514854737        0.30245888318681       -1.49834490830121
H           -1.32166629877974        1.48061976275094       -2.69275934526157
H           -0.93544636790639        1.53257601838555        1.11010387711330
H            0.43104923983534        2.23381832661025       -1.01970497528006
H            2.50881212935292       -0.00943161656257        0.53214337887918
H            2.28723959232532        1.54810515534349       -0.23107244387266
H            2.93753313774777        0.66108996143129       -2.37109507774167
H            2.67034022729831       -0.99470302784414       -1.88590535415191
H            5.00066264055718        1.72106937764395       -1.79650056499945
H            7.30037422857980        1.58942740519410       -0.90986668311802
H            8.90385126610773        1.39805497051806        0.72733817244477
H            9.39735449583363        0.60487949775633       -0.79138975376538
H           10.12300037705572        0.08509490503666        0.75707669729605
H            6.41347832444502       -4.27074918123995        1.70521265412994
H            4.93233638737360       -3.29170214245351        1.82064791341932
H            5.40582761082119       -4.01472790433844        0.25647034426851
H            4.03504287785203       -2.02909792712250       -0.18051170610413
H            1.87024944827392       -2.52334875528781       -1.18592963179219
H            0.53319048687081       -2.23643244751412       -0.17540006336954
H            2.12720832020892       -2.10249857532383        0.58747195841093
H           -4.85371131716815        2.87251428824912       -0.08863507631851
H           -3.90954619129154        2.95178506182427        2.80383890662051
H           -4.97601335324476        1.71940866996357        2.12288699799432
H           -5.51260029268033        3.40162975351116        2.23412125720347
H           -2.85067285158374        4.70096679768503        1.27405557226559
H           -3.37805291592557        4.80610533439767       -0.41639374639581
H           -4.51598896986807        5.14673268411750        0.88323444242815
H           -0.84033733889185        3.02037703093330        2.80506572840906
