72
 energy: 8.880272237277 xtb: 6.6.1 (8d0f1dd)
N           -1.59787296305969        2.92158519998641        2.26277400599593
C           -1.63891914301025        2.17678838309975        1.24953732606153
C           -2.80490559074538        2.06843227378714        0.30029523648466
C           -3.36613891228226        0.65698375430606        0.36010178241369
C           -4.31996872513828        0.23486697672945       -0.56855989297416
C           -4.84857795522725       -1.04413609690951       -0.53677587580583
O           -5.78132586130794       -1.53429778157189       -1.40806312706462
C           -6.30818622993708       -0.66616485700489       -2.37721005933971
C           -4.43499182791138       -1.94320077268867        0.46716493022688
O           -5.01742024541235       -3.17921435136397        0.42377373847257
C           -4.69803278496111       -4.09504654184896        1.43791659371059
C           -3.49548097555520       -1.52211992647470        1.38989946261008
C           -2.96969752976488       -0.23745444403036        1.33473582631215
C           -2.23849328044127        2.31321421991347       -1.11988468354222
C           -1.31181430809135        1.19792793399999       -1.66834632845906
C            0.02145106582762        1.09441380009288       -0.98101832914479
N            0.80002353802552       -0.06728033607300       -0.56595373815304
C            2.15293105804303        0.17211525870458       -0.24145773685776
C            3.01261538916251       -0.33432102122230       -1.40811698789792
C            4.42195247991320       -0.33763081691762       -0.96800389725042
C            5.19811867138436        0.78269012348274       -1.13776495870017
C            6.49836239866072        0.81445020648686       -0.65823851280122
C            7.01599771836654       -0.27805186559125        0.01734012581059
O            8.28536467743353       -0.36695583573186        0.51899418060191
C            9.14293438364222        0.72253327212036        0.30370902466080
C            6.19841595957000       -1.40952085074030        0.23923245335896
O            6.79863228305029       -2.41800102374792        0.93647593773337
C            6.08436111307297       -3.59812181102347        1.16840655523248
C            4.91035405621202       -1.42060081587888       -0.25198738991324
C            0.57233503629022       -1.52142893657891       -0.52652874750657
C           -3.95745125876271        3.06522989305872        0.61192500350931
C           -4.56865640163493        2.76917944564051        1.98082921836105
C           -3.51252414126939        4.52480945840679        0.56632288579394
H           -4.63822916778328        0.91891179348005       -1.33819692396042
H           -6.78448031868357        0.20979888270497       -1.92445971980990
H           -7.05704136242983       -1.24645774789871       -2.91480834307521
H           -5.53986215860832       -0.32999803699022       -3.08122966952131
H           -4.95749417000443       -3.70659115054662        2.42905922901323
H           -5.29366298691384       -4.98276268669283        1.23028150697846
H           -3.63488098501735       -4.36355899273086        1.42006733319096
H           -3.16634097256548       -2.18480538491263        2.17465886541549
H           -2.25747638012901        0.06872325171796        2.08372168204689
H           -3.07531507886472        2.42657014811993       -1.81713137275448
H           -1.69767993433482        3.25915577337224       -1.10519479961735
H           -1.82825961703502        0.24863929761760       -1.57881681396907
H           -1.15618241584862        1.41834602054272       -2.74778348481039
H           -0.77717237106969        1.59076665883705        0.86171808784558
H            0.62694075851257        1.99381241467960       -1.16286353903476
H            2.38692518255189       -0.40396946129687        0.66575374362088
H            2.32918313252911        1.22505084837664       -0.03535610341809
H            2.83531020298681        0.32079436502415       -2.25978011405218
H            2.68492792189523       -1.33498152519607       -1.67906675310099
H            4.78568861949638        1.63015036049354       -1.66320510454562
H            7.09486793195671        1.69616111179802       -0.83001891058671
H            8.76260871954515        1.63390068442017        0.77837969751338
H            9.29049220817698        0.91140760783897       -0.76597842054220
H           10.09152115152501        0.43533674079258        0.75788137358595
H            6.77886713659079       -4.26563966533866        1.67939522614904
H            5.21756084585827       -3.41814152521185        1.80978984405877
H            5.75632795314745       -4.06120882246011        0.23213723301099
H            4.24118847708779       -2.25012413999769       -0.08798623466753
H            0.63747650867070       -2.05597157228650       -1.49096590432289
H           -0.42329794239775       -1.72191018055721       -0.16003550183965
H            1.23381884962545       -2.02889589479048        0.17928781971447
H           -4.73551939625123        2.92572218215913       -0.15003054941718
H           -3.82351589448121        2.92555889180924        2.75126489266925
H           -4.92334575004413        1.74239353191870        2.03857448304478
H           -5.40319403633064        3.43911207393018        2.17280734494661
H           -2.70486207375524        4.67378348985004        1.27383859353512
H           -3.18197353286156        4.80712157926307       -0.42851738311685
H           -4.34554031753886        5.17184280698577        0.84152929973923
H           -0.71378865630572        2.87733980424975        2.76152682135087
