72
 energy: 14.736634891825 xtb: 6.6.1 (8d0f1dd)
N           -1.61895927135783        2.94461219433545        2.26988327955013
C           -1.65707816109696        2.18452600358613        1.26700354701654
C           -2.81632635098385        2.07031911590277        0.31010319750183
C           -3.37490560245854        0.65794096728010        0.36620333291691
C           -4.32178970262568        0.23191257726024       -0.56809901567708
C           -4.84751179493017       -1.04848911707226       -0.53840456382184
O           -5.77364650390631       -1.54184640509051       -1.41541613831259
C           -6.29342202289031       -0.67607002014238       -2.39065880711896
C           -4.44086113716237       -1.94388155924026        0.47150311138452
O           -5.02199881549489       -3.18099709310773        0.42744093419217
C           -4.70377765414302       -4.09456975412246        1.44368740271039
C           -3.50778643453141       -1.51925009526231        1.39934807520541
C           -2.98351254899337       -0.23402040750158        1.34489405744171
C           -2.24644032644308        2.31698052353088       -1.10765667394041
C           -1.32381871961283        1.20035383991688       -1.66220503020120
C            0.02000525002590        1.07465598137814       -0.98509860183562
N            0.82494132227920       -0.08239975444724       -0.59095514239646
C            2.16958521975926        0.20499365972777       -0.25949212404234
C            3.02520564147615       -0.29818766823030       -1.42911189585346
C            4.43120625874810       -0.32000814919691       -0.98700370696639
C            5.21819176064160        0.79155726239640       -1.15267099204013
C            6.51626435237249        0.80934750970358       -0.66742426353306
C            7.01763815524148       -0.28941392377969        0.01069121052689
O            8.28486559865551       -0.39249774634403        0.51662622726840
C            9.15409478287098        0.68813236435222        0.30070885595129
C            6.18490073849796       -1.41015177154995        0.23308340352384
O            6.77213933889844       -2.42283804984939        0.93586864820961
C            6.04577113610867       -3.59443745559693        1.17074633708232
C            4.89928202808833       -1.40677806332324       -0.26427275584958
C            0.67716040877258       -1.55658136703040       -0.51005278035258
C           -3.97258375071575        3.06347249128306        0.61747587990510
C           -4.58077019205294        2.76797330502751        1.98784384542223
C           -3.53275237694067        4.52447243033892        0.56883328541870
H           -4.63460914309885        0.91377262594567       -1.34208192657322
H           -6.77406641124943        0.20103463128906       -1.94460535875837
H           -7.03723485700608       -1.25791955854089       -2.93364249568032
H           -5.51924760234136       -0.34091158828577       -3.08856237342502
H           -4.96966168339260       -3.70598563508296        2.43311060651097
H           -5.29463448262289       -4.98498293439200        1.23405751789141
H           -3.63936040250907       -4.35878154740425        1.43120173058112
H           -3.18245154171931       -2.17952410107620        2.18773023999112
H           -2.27640898103930        0.07516842320730        2.09748504631823
H           -3.08362161409615        2.43408947176542       -1.80507561836651
H           -1.70711633531998        3.26342908957000       -1.08922453870956
H           -1.84562807433371        0.25507515714275       -1.57191325659430
H           -1.18216044148465        1.42477519758591       -2.74649880359827
H           -0.79612220404425        1.58293989802333        0.90021993600719
H            0.59810144929653        2.00099972733048       -1.16202340966661
H            2.42154008857752       -0.35732141373989        0.65215716081214
H            2.32544510935691        1.26255337986248       -0.06057863698257
H            2.84968250688175        0.36342103579136       -2.27522533629493
H            2.68808873903521       -1.29289378205359       -1.70732624710099
H            4.81336052929091        1.64103951855247       -1.68033418327093
H            7.12261304982184        1.68449232933938       -0.83803310365458
H            8.78170996579769        1.60480918726657        0.77185033358577
H            9.30512264049409        0.87333671555248       -0.76925640429491
H           10.09908513971426        0.39231504641868        0.75719209492663
H            6.73289592151154       -4.26866236714417        1.68337718714789
H            5.18147017269345       -3.40282324425362        1.81180983344548
H            5.71235652329189       -4.05574442017700        0.23557796623943
H            4.21477598399024       -2.22408830291741       -0.10109105300371
H            0.78236054404557       -2.11457070884788       -1.45765684480499
H           -0.31343555712488       -1.79746173280022       -0.15817991516843
H            1.34628977832639       -2.02211261859026        0.22003818929787
H           -4.75078785581171        2.91933464928309       -0.14363233213303
H           -3.83498259152193        2.92901312768189        2.75678305988916
H           -4.93103939097118        1.73976390744113        2.04842484806936
H           -5.41729702415598        3.43517100390417        2.18032473171816
H           -2.72348193809822        4.67532889183468        1.27381038885036
H           -3.20616943070089        4.80649103078753       -0.42732068271053
H           -4.36689560590088        5.16929017400687        0.84627211548581
H           -0.73406202196589        2.89810293001399        2.76764875157897
