72
 energy: 36.715055041401 xtb: 6.6.1 (8d0f1dd)
N           -1.73329295423858        3.09788314087031        2.24213735258241
C           -1.78905845822429        2.24460091814439        1.32836581037123
C           -2.96030333105349        2.09732131872753        0.39232840795548
C           -3.48342864144067        0.66967969897685        0.42600109734515
C           -4.32734447736692        0.19953226438401       -0.58411182588491
C           -4.83403753616759       -1.08590324011066       -0.55566557441134
O           -5.66139096805570       -1.62815730049349       -1.49645390334383
C           -6.08712703079909       -0.82486664212176       -2.56638080136554
C           -4.50998752304004       -1.94211277454099        0.51952383745782
O           -5.06168034449625       -3.18960929485080        0.46343915990853
C           -4.78905072320253       -4.08763743354306        1.50892423897860
C           -3.68081854346447       -1.47059020062819        1.51886190468074
C           -3.17672964363939       -0.17753406223053        1.47293036156049
C           -2.40361967678937        2.43456810424642       -1.01521390676846
C           -1.43984402540308        1.39607252575317       -1.60192537590195
C           -0.03315501726077        1.48973662998759       -1.11181116540571
N            0.70371213412406        0.49045749135478       -0.88840507976580
C            2.08559800728612        0.70645789083621       -0.49871615787941
C            3.01652968338034        0.20549819953013       -1.62152113182800
C            4.40933530398030       -0.01748729655807       -1.12399781049925
C            5.40648924957599        0.90756715014923       -1.34745253865252
C            6.68314241453294        0.70813238126940       -0.84011076691230
C            6.96875753101915       -0.42720414839350       -0.10587421954894
O            8.18345953848214       -0.71915172658114        0.44789833074080
C            9.22635260207978        0.20167151286394        0.25125388058737
C            5.95664189971693       -1.38593225182423        0.13444537363350
O            6.38412484688761       -2.44719433583937        0.87619634484454
C            5.50857567808132       -3.50002727660287        1.17933993144188
C            4.69661101941180       -1.15783948225046       -0.37978223016590
C            2.30182637289884       -2.54697195477208       -0.13802338376411
C           -4.15033876730379        3.03808729355611        0.72272326943389
C           -4.71119773756190        2.73877340807571        2.11265389102534
C           -3.80105037648984        4.52180313103108        0.62348915083614
H           -4.58897310264622        0.84875176405943       -1.40346340093453
H           -6.63972995099874        0.05878429610004       -2.22732075783812
H           -6.74955019249682       -1.45950140980975       -3.15297358327847
H           -5.24481161492743       -0.50774078761189       -3.18973493061994
H           -5.14654412986560       -3.70564578294590        2.47013180121623
H           -5.33246443720421       -4.99690995126901        1.25543273538690
H           -3.71839779486319       -4.31374397055629        1.58307403111449
H           -3.41325030785168       -2.10006879150717        2.35148965684098
H           -2.54545562275728        0.16083690688687        2.27911419166698
H           -3.24736957184325        2.55050387011904       -1.69572648076569
H           -1.90252160897141        3.40367449978115       -0.96221031376014
H           -1.81275535197888        0.38487037451188       -1.46017035133992
H           -1.37757130142329        1.57589855286750       -2.67542254219832
H           -1.00079448928429        1.51451232195532        1.13054723571627
H            0.32908441775987        2.52686117570579       -1.00785366196741
H            2.32874343182299        0.16592001976722        0.41890327543805
H            2.23539678527357        1.78015539696863       -0.31765100059910
H            3.02388760817376        0.95017315709824       -2.41089957021400
H            2.60761726614033       -0.71501551008326       -2.04315719782983
H            5.17774866151852        1.79666130402322       -1.90935951553433
H            7.43543407183112        1.46046963153707       -1.01530654932869
H            8.99865470548798        1.18311323692656        0.68401311474495
H            9.45699658475230        0.32810471207082       -0.81206617988049
H           10.08579283201874       -0.22641054761293        0.76108574517635
H            6.10135383670639       -4.23923093909364        1.71621807831682
H            4.69450561624071       -3.16798025977003        1.83023420598723
H            5.09875364341738       -3.96324108677524        0.27707280284348
H            3.81595179449974       -1.82010282550272       -0.22218018445537
H            2.64349971334309       -3.20605185089449       -0.89235738516584
H            1.36358147373388       -2.11304820476139       -0.35649453299962
H            2.49795924198890       -2.75155577369012        0.89592935472314
H           -4.93435396879202        2.81961170267004       -0.01335593736454
H           -3.96830002426305        2.97329734558022        2.86876897581263
H           -4.99188435497397        1.69179149053363        2.20626270652011
H           -5.59305626127454        3.34847410344081        2.29121391525209
H           -2.96860568135065        4.75001286791409        1.28103248980384
H           -3.54752586843776        4.81422175990081       -0.39221669034635
H           -4.66091747473179        5.11020731135883        0.93625592990771
H           -0.87608759726077        3.11148878022132        2.78690563882426
