72
 energy: 56.158771003374 xtb: 6.6.1 (8d0f1dd)
N           -1.72161774165498        3.03912504887453        2.29578095883648
C           -1.74610823663195        2.23644737387708        1.32375371589127
C           -2.87812140927093        2.08286713323389        0.35036524026407
C           -3.41826843652537        0.66141654036105        0.39406965645595
C           -4.32639518567616        0.21508785467599       -0.57152243083629
C           -4.84626256388887       -1.06858466789345       -0.54714185935605
O           -5.73409940296284       -1.57901248657706       -1.45144655348689
C           -6.21997229158446       -0.72745751708254       -2.45708288158649
C           -4.47000339672684       -1.94671713484884        0.49219470243450
O           -5.04383762263612       -3.18629688912707        0.44775698883526
C           -4.73283121251180       -4.09238970990225        1.47259860658941
C           -3.56965153785142       -1.50424428551166        1.44499938053309
C           -3.05305052447500       -0.21590450952537        1.39485636080696
C           -2.29399316455031        2.35044313918035       -1.05390131177292
C           -1.37307525358441        1.23660485427495       -1.60662194619062
C            0.03054793289300        1.15549683287429       -1.03485304309880
N            0.75557313385524        0.17447137221702       -0.64248823832635
C            2.17072728059743        0.40708395297384       -0.34324112808652
C            3.03551783386502       -0.10745073758145       -1.51417250553264
C            4.44320992559879       -0.21826579787460       -1.05684884143547
C            5.30355208062612        0.83403596625493       -1.22435083640816
C            6.59499046128388        0.77876991980324       -0.72062647732843
C            7.01494754602789       -0.34434393602638       -0.02690419090201
O            8.26883310496585       -0.51754186000991        0.49830849879069
C            9.19911406145935        0.51515731468160        0.28422375347818
C            6.10824921221338       -1.40817618091924        0.19832783823356
O            6.63474932693771       -2.44060021116100        0.92328723481451
C            5.85214618496468       -3.57041568986249        1.17971607326237
C            4.83119876856763       -1.32855947301076       -0.31955431686074
C            1.30905578272790       -1.92356788692621       -0.36242865601344
C           -4.04782002711715        3.05572335013157        0.64836986901840
C           -4.63948911330888        2.76045204841205        2.02591514831889
C           -3.63359302011647        4.52383811746684        0.58248386461257
H           -4.61723971742677        0.88816963286582       -1.36254803038909
H           -6.72293991381364        0.15477396186405       -2.04563329240950
H           -6.93743113762440       -1.32028537028423       -3.02318975518650
H           -5.41869431638584       -0.39822463675773       -3.12613955727531
H           -5.03035538756455       -3.70386689295938        2.45286978276884
H           -5.30355012979694       -4.99338375237529        1.25209558693486
H           -3.66403854907772       -4.33807960175763        1.48657259578811
H           -3.26146038711867       -2.15322006478541        2.24932526504545
H           -2.37090615547739        0.10576429814478        2.16504766602313
H           -3.13045321160589        2.47214172049329       -1.75079919692800
H           -1.76658012095950        3.30370562985524       -1.02645611983975
H           -1.89343070429360        0.28742405767783       -1.51129067358884
H           -1.29729970393469        1.45950574156732       -2.70770119674281
H           -0.90315910652878        1.55972272644025        1.07998008704274
H            0.47293103826588        2.15866850926129       -1.02181426026642
H            2.51249815358529       -0.11311086748899        0.56680803369215
H            2.31975287076275        1.47495861032278       -0.17505668713508
H            2.91339037897208        0.57892539016057       -2.34589888772391
H            2.67773547635779       -1.07627068787138       -1.83556495156835
H            4.94910378686963        1.69802780802548       -1.76364689275765
H            7.25261686148386        1.61788959526220       -0.88768314792560
H            8.87075798106140        1.45779111311791        0.73904305057652
H            9.37288365148569        0.68219570784358       -0.78576458443366
H           10.12201203404879        0.17487190118468        0.75566484450162
H            6.50429991500495       -4.27267085070386        1.70187862328651
H            5.00276858599457       -3.32358361270577        1.82058042029803
H            5.49259012110933       -4.02781211183383        0.25312794229720
H            4.08239359595834       -2.08801226119680       -0.16112620770989
H            1.54269100374613       -2.41001516587390       -1.27046053216522
H            0.28651892864903       -2.12321402019461       -0.14042255368404
H            1.93857746127242       -2.10396209713248        0.46945657640564
H           -4.82603718719528        2.88626545840889       -0.10679938260926
H           -3.89217119507482        2.94531996271260        2.78898397709784
H           -4.96633793418776        1.72520339930767        2.09955670307844
H           -5.48801683357780        3.41173942436546        2.21748043491648
H           -2.81626695727389        4.69294088030573        1.27338503408467
H           -3.32941269570375        4.80586215676969       -0.42074499280345
H           -4.47450189098945        5.15411803581052        0.87111404393531
H           -0.83223464150824        2.99692125029346        2.79174894670611
