72
 energy: 33.463804658645 xtb: 6.6.1 (8d0f1dd)
N           -1.74747969960620        3.09839230212783        2.24369010533128
C           -1.79796368463287        2.23368715148104        1.33637994739412
C           -2.96718560060532        2.09574116191314        0.39346496772122
C           -3.48801529950298        0.66887525368827        0.42706804711990
C           -4.32679779998287        0.19889915291828       -0.58637259316942
C           -4.83451539596537       -1.08676702874796       -0.55914829391888
O           -5.66536771460759       -1.62730386318953       -1.49836705396731
C           -6.07427537035893       -0.83291484723024       -2.58029658596193
C           -4.51146717405794       -1.94112875598360        0.51814538924704
O           -5.06154446796111       -3.18783411011828        0.46212739725231
C           -4.79453921532563       -4.08480509038468        1.50921987695194
C           -3.69197289647388       -1.46912955243314        1.52652674568221
C           -3.18974898568896       -0.17628971049848        1.47992465043190
C           -2.41517256855957        2.44589717422985       -1.01642525032305
C           -1.44422130320360        1.41921686408591       -1.61085558009943
C           -0.04011968988470        1.53417383639912       -1.11981645487519
N            0.69582250318988        0.53538703005425       -0.90722988272901
C            2.07455160827175        0.73523013313438       -0.51252015565209
C            3.00817042137684        0.23272077764866       -1.62997766181081
C            4.39790452990890       -0.00377306724009       -1.11980009972765
C            5.40323859129932        0.91316266126226       -1.34708632008686
C            6.67955985808172        0.69946712904033       -0.84165574638182
C            6.96339181999807       -0.43650112513219       -0.10603138004624
O            8.18055976345888       -0.73779926133350        0.44174126140831
C            9.23742344066251        0.16893801703885        0.24777975815073
C            5.94190252955145       -1.38843418440026        0.13713860603592
O            6.36260430244276       -2.45996720792410        0.87350736922727
C            5.47111637480569       -3.49832055311950        1.17929594983659
C            4.68069313376693       -1.14763413612034       -0.37530806504583
C            2.37834713719752       -2.64117011063201       -0.12866360087122
C           -4.15939024931430        3.03351596322581        0.73067062837142
C           -4.72084343451622        2.73635815143695        2.12105072843124
C           -3.81967019852883        4.52123345356179        0.62793571066992
H           -4.58489384441341        0.84886683253254       -1.40586134055439
H           -6.62950207963107        0.05208533304963       -2.24967397342483
H           -6.73095380290074       -1.46956269622360       -3.17241255373121
H           -5.22516662249907       -0.51915619473376       -3.19704263164104
H           -5.15811751537613       -3.70481337670379        2.47047796926944
H           -5.33497205469604       -4.99603384395441        1.25405553972729
H           -3.72408605129527       -4.30985753782581        1.59279619763660
H           -3.42898215214479       -2.09649792646367        2.36309489404658
H           -2.56531585056452        0.16637774322193        2.29134438374941
H           -3.26082804889609        2.56031719129921       -1.69586416663098
H           -1.91820065409738        3.41720146191478       -0.96227673841665
H           -1.80138933103613        0.40235851306704       -1.46068315547715
H           -1.39295309067172        1.59027037874179       -2.68947628664050
H           -1.00650647734184        1.50107959011371        1.15448521676937
H            0.31902434493226        2.57082912651620       -0.99982411405822
H            2.28092606507900        0.17245778644215        0.40226537079126
H            2.26309716503252        1.80047724579008       -0.31392658387266
H            3.02415283770807        0.98380055045782       -2.41632758399010
H            2.58826576879780       -0.68797883273878       -2.03663843666421
H            5.19707866375308        1.80290013720879       -1.92343509556922
H            7.44214934106148        1.44151091593825       -1.02870297366532
H            9.01582547000121        1.15277443284544        0.67851632685052
H            9.47095047260252        0.29107218548210       -0.81582789079091
H           10.09464524751427       -0.26629150372194        0.76123080868136
H            6.05540180832647       -4.24258246517641        1.71687994319866
H            4.66028463205644       -3.15527550006092        1.82919835920364
H            5.05555040870292       -3.95818103058438        0.27818430409674
H            3.78931179306578       -1.83323318588193       -0.21625512605047
H            2.69256764786737       -3.34321730701795       -0.86409510087547
H            1.50324810333162       -2.10112589673571       -0.39032300166401
H            2.50224510272583       -2.86915108660508        0.90954645714349
H           -4.94568353039556        2.81190670672275       -0.00328018067176
H           -3.97913143026790        2.97505632663310        2.87614645751342
H           -4.99926523763898        1.68930976831692        2.21714329779540
H           -5.60496198429243        3.34389783151247        2.29889183839497
H           -2.98628973154453        4.75451885191374        1.28243702900542
H           -3.57140521095745        4.81450239315765       -0.38921653152563
H           -4.68142816543851        5.10687103972028        0.94223084153376
H           -0.87839236212983        3.12023045665207        2.77002628130988
