72
 energy: 40.558324620975 xtb: 6.6.1 (8d0f1dd)
N           -1.71410245593038        3.10738757837987        2.22274510157594
C           -1.78293765547367        2.23645872336950        1.32689927714659
C           -2.95223132199958        2.09523890177342        0.38880816409488
C           -3.47630609180294        0.66782143738905        0.42376788877359
C           -4.32694430127586        0.19958704333970       -0.58127026395743
C           -4.83514836051062       -1.08455845134813       -0.55141778251247
O           -5.66117048310660       -1.62357614493915       -1.49230333744007
C           -6.10089611465918       -0.81456372043878       -2.55359508047820
C           -4.50690316437504       -1.94493208518884        0.51975751778802
O           -5.05873428133936       -3.19141220807959        0.46299355034855
C           -4.78241812777387       -4.08992781157487        1.50679617843874
C           -3.66827296903686       -1.47599081432337        1.51284941700321
C           -3.16285189515808       -0.18280842784038        1.46584463057128
C           -2.39175493715236        2.42326900610565       -1.01480743649149
C           -1.43698792034478        1.37366639224893       -1.59548089179574
C           -0.02945721687501        1.44715674900224       -1.10290991132874
N            0.70329144115081        0.44645744549713       -0.86344457941439
C            2.08973931708087        0.67400982206877       -0.48869893037100
C            3.02482809164669        0.17310670250213       -1.61359285876171
C            4.41800170318601       -0.03606467187481       -1.11840212456874
C            5.39839423655778        0.90211962532035       -1.33628572556993
C            6.67541165189238        0.71665728781327       -0.82784503553135
C            6.97494004117608       -0.41826588943926       -0.10036317539130
O            8.18996324358664       -0.69640061010344        0.44966375613748
C            9.22518132401617        0.23643981718964        0.25398549195375
C            5.97630052327359       -1.38972813373631        0.13778705783890
O            6.41310866058034       -2.44714457517215        0.88061888491373
C            5.54720307162272       -3.50703677960935        1.18111525956395
C            4.71558664846026       -1.17408655758607       -0.37594485851990
C            2.20785686524192       -2.45859333871612       -0.14975409374055
C           -4.13975056938578        3.03939142620854        0.71357699535104
C           -4.70415993942008        2.74105881268219        2.10222214578140
C           -3.78284427017068        4.52143770262643        0.61665812132853
H           -4.59170736094415        0.85157268263539       -1.39798976157813
H           -6.64842634050511        0.06938464538337       -2.20658277403780
H           -6.77042176427598       -1.44358591430879       -3.13865857166211
H           -5.26450483078944       -0.49646242624751       -3.18334671139279
H           -5.13348251456457       -3.70675008737184        2.47009736098674
H           -5.33029077185476       -4.99615325211157        1.25327707346246
H           -3.71168812409154       -4.31731558803884        1.57317447923294
H           -3.39536798503378       -2.10734198051897        2.34282757133345
H           -2.52497179184547        0.15421058100870        2.26777336018332
H           -3.23344785248093        2.54118936974706       -1.69711163182846
H           -1.88681045735019        3.38952520769240       -0.96091563384603
H           -1.82646027725699        0.36900744910842       -1.46203543445697
H           -1.35840942811770        1.56206509768568       -2.66393241265367
H           -0.98990959276696        1.50904768109425        1.10723234858955
H            0.33983168005798        2.48280780399822       -1.01670513524609
H            2.37272862940477        0.16391471421588        0.43485202110248
H            2.21919364514831        1.74979114184223       -0.32086888556375
H            3.01562208692153        0.90801694987057       -2.41130003617768
H            2.62660231127160       -0.75587300972729       -2.02368661316329
H            5.15404617513280        1.78781093682053       -1.89455992448569
H            7.41819425351126        1.47762996001663       -0.99959692065217
H            8.98731962285992        1.21446842769987        0.68968430602021
H            9.45136415416208        0.36882237169159       -0.80977631029508
H           10.09250176945890       -0.18251303488943        0.75968267347163
H            6.14684805044620       -4.24171545083383        1.71708210903855
H            4.72927886475539       -3.18328869868517        1.83082498433982
H            5.14265860124362       -3.97015276066795        0.27654049139814
H            3.86424276308825       -1.83245974096119       -0.21935111405485
H            2.59443109689752       -3.05775344809087       -0.92661631700564
H            1.21914595468613       -2.15385829861333       -0.33834668919344
H            2.47229283226133       -2.63697010711913        0.87199217254799
H           -4.92265354844383        2.82530135975168       -0.02546685526124
H           -3.96046063247539        2.97004449874045        2.85956660577075
H           -4.99020346970512        1.69547627704531        2.19453714244574
H           -5.58262503587275        3.35573590266144        2.28109708139117
H           -2.95171464818059        4.74373963751538        1.27830211224574
H           -3.52369118887050        4.81228267390993       -0.39808139160349
H           -4.64128448608551        5.11435409576519        0.92544848626797
H           -0.87923883682156        3.11230286085594        2.80410375703827
