72
 energy: 27.902370872484 xtb: 6.6.1 (8d0f1dd)
N           -1.66265998865947        2.98588418949655        2.28671873881487
C           -1.69525312701250        2.20014637298865        1.30104094755094
C           -2.84004115515306        2.07435143188010        0.32943731413993
C           -3.39242587697518        0.65959175941943        0.37789901700276
C           -4.32373865850626        0.22523035086426       -0.56889176052111
C           -4.84487968459147       -1.05718815348126       -0.54220968988306
O           -5.75758016754719       -1.55687064071337       -1.43005675500485
C           -6.26363269819745       -0.69596956322141       -2.41716484801376
C           -4.45185112668987       -1.94519047059502        0.47981297775179
O           -5.03077330444106       -3.18413852612871        0.43548584524536
C           -4.71521630025103       -4.09341114210023        1.45576231114668
C           -3.53167539271849       -1.51360221080020        1.41763873667223
C           -3.01079814588999       -0.22710527980479        1.36475921200250
C           -2.26087374294903        2.32507630732520       -1.08231541012388
C           -1.34200263673120        1.20254478652217       -1.64160850329118
C            0.02175786701537        1.04362978616228       -0.99695905038671
N            0.84494602255655       -0.07812069222216       -0.57781774569439
C            2.19332701816718        0.27505130417469       -0.28798925781326
C            3.04079235807271       -0.22389486839825       -1.46623757343924
C            4.44317238892509       -0.28330496006983       -1.02039642601189
C            5.25541268761451        0.80805851560989       -1.18197572110146
C            6.54943499990918        0.79762580255499       -0.68710523326179
C            7.01832185613445       -0.31210250607913       -0.00298535747739
O            8.28106804349886       -0.44267775331255        0.51060255791089
C            9.17311715992636        0.62028425715406        0.29368127028767
C            6.15576411333050       -1.41076552526968        0.22105695588484
O            6.71842525135285       -2.43170538771489        0.93332462275662
C            5.96929359466571       -3.58667495789320        1.17526379710836
C            4.87418351094984       -1.37793700286280       -0.28614537196175
C            0.88441679889825       -1.61544576593132       -0.47337912974107
C           -4.00268011135514        3.06033595976234        0.62891280304459
C           -4.60480904263390        2.76502159972618        2.00196445885771
C           -3.57304217844001        4.52424272993650        0.57342541577422
H           -4.62697419871075        0.90315359288829       -1.35052506489662
H           -6.75278366159926        0.18332709458009       -1.98440756571377
H           -6.99747738559293       -1.28131091875860       -2.97001273207224
H           -5.47831643658598       -0.36310087518593       -3.10337227562390
H           -4.99356318783535       -3.70444597525787        2.44160796563051
H           -5.29741740992544       -4.98861105913269        1.24237459545801
H           -3.64866746132908       -4.34994752012840        1.45400783699612
H           -3.21356458203574       -2.16901136978003        2.21299919296079
H           -2.31345383551355        0.08774987501153        2.12413120710170
H           -3.09771943447256        2.44882407920061       -1.78134600943527
H           -1.72537705247574        3.27342432083438       -1.05832650965595
H           -1.87646052599095        0.26534971243583       -1.55422352399535
H           -1.23282947927980        1.43656585098954       -2.73625955694326
H           -0.83781559837792        1.57036546840384        0.97700519722608
H            0.55203422616950        2.01134993156170       -1.08941013188997
H            2.48605482087748       -0.26122536917309        0.62652824770573
H            2.31945419499742        1.33921290570063       -0.10599393003809
H            2.87571464267214        0.44947816409485       -2.30302363300713
H            2.68957425213225       -1.20709028931981       -1.76008232520413
H            4.86754101299020        1.66210368234289       -1.71424751598547
H            7.17572603914356        1.65882480421443       -0.85664744048819
H            8.81706102911081        1.54737224338966        0.75794211892095
H            9.33154757659886        0.79807092230103       -0.77667804518734
H           10.11051591438076        0.30788839187054        0.75512699055183
H            6.64230985345394       -4.27312363228966        1.69109627469730
H            5.11043147383293       -3.37310333793994        1.81632159130459
H            5.62530901804832       -4.04560783251336        0.24287763376138
H            4.16176637733123       -2.17189253264560       -0.12399121222717
H            1.06809322238466       -2.20885264115546       -1.38918045834579
H           -0.08701718088571       -1.94543833348637       -0.14900734641856
H            1.56932697236082       -2.01228532811338        0.29015653212113
H           -4.78078860637641        2.90653464829021       -0.13046458948458
H           -3.85800074558027        2.93528048538840        2.76828802654114
H           -4.94555783008161        1.73377413104623        2.06741015075410
H           -5.44603098326178        3.42589489833200        2.19484123936539
H           -2.76065613541780        4.68109600580276        1.27314936044226
H           -3.25468731362020        4.80575522054104       -0.42550359568976
H           -4.40971136559909        5.16408786662459        0.85493710832215
H           -0.77439409195070        2.93723328583824        2.78072025172039
