72
 energy: -5.325334865745 xtb: 6.6.1 (8d0f1dd)
N           -1.52335546554211        2.82138274128365        2.24613813088395
C           -1.57561845972101        2.15562570871449        1.18121829721624
C           -2.76279504098848        2.06221689438954        0.26125383514369
C           -3.33054775393934        0.65188888790307        0.33525223775589
C           -4.30852388625832        0.24340580653950       -0.57373673680864
C           -4.84975152101428       -1.02809998554405       -0.53117971778387
O           -5.80870999413300       -1.50406291000890       -1.37767991299847
C           -6.36684785011943       -0.62771578113291       -2.32182372558328
C           -4.41036026923967       -1.94148290354164        0.45068527395550
O           -4.99973252445034       -3.17120633172059        0.41319847276955
C           -4.67526274131454       -4.09817488238046        1.41660189914665
C           -3.44578904761029       -1.53455897033651        1.35244575804506
C           -2.91348642801264       -0.25188462486418        1.29387715989165
C           -2.20742225728760        2.30115888614829       -1.16752055760344
C           -1.26636281957152        1.18742402482287       -1.67942718414742
C            0.01414243142611        1.13321881747958       -0.91920090058027
N            0.68768135807288       -0.04147090874809       -0.55795671548372
C            2.05713818535208        0.03432871040973       -0.18498920830087
C            2.96168801926804       -0.47489488620381       -1.32262825192384
C            4.38141788944565       -0.40445466438858       -0.88401060437960
C            5.11647186480845        0.74725148247860       -1.07499524443603
C            6.42400262850813        0.83315749660887       -0.62086700447688
C            7.00435929578261       -0.23199421291228        0.04492923618792
O            8.28069857387271       -0.26298795018365        0.52669575864420
C            9.09392927874764        0.86032427836039        0.31462009904941
C            6.24804570305945       -1.40432894030007        0.26662125181712
O            6.90282624626875       -2.39572662658774        0.93556729807210
C            6.23938831291726       -3.61000308683446        1.15844390156546
C            4.94957819754402       -1.47175574253923       -0.19535865227186
C            0.15390159760194       -1.37887798137901       -0.59311619182084
C           -3.89796951831638        3.07293987458260        0.59032836863570
C           -4.51927826453155        2.77356090760608        1.95379421660873
C           -3.43186599312675        4.52656466082537        0.55509617240383
H           -4.65100692314751        0.93706673069383       -1.32376535257437
H           -6.82646177532525        0.24333989961419       -1.84311050353627
H           -7.13543117693684       -1.20413091002686       -2.83492801032470
H           -5.62415831882038       -0.28829608628836       -3.05198981710682
H           -4.90804883348952       -3.71179052129216        2.41485832906263
H           -5.29203299240184       -4.97306123629227        1.21610252230344
H           -3.61842950550476       -4.38585222340848        1.37607324283039
H           -3.10222673477345       -2.20586050835531        2.12346626228469
H           -2.18162004560095        0.04096939590694        2.02973538925720
H           -3.04190722285893        2.39845560619376       -1.86542244696475
H           -1.66449156539848        3.24756039339113       -1.17078064457670
H           -1.78262568079778        0.23089368893004       -1.62415246008789
H           -1.04768694222877        1.39330443501522       -2.73852100606626
H           -0.71132789882187        1.63085229567386        0.71157035236483
H            0.65141686123261        2.00126133700033       -1.01415516319115
H            2.21485816330634       -0.58360983804185        0.70863607733226
H            2.31315262674188        1.06560709906093        0.06121887487915
H            2.78519521722641        0.15160974511068       -2.19804639864619
H            2.67984368892092       -1.49824389235999       -1.56844312778204
H            4.67588821320102        1.58451698857886       -1.59540914863747
H            6.98139590931541        1.73819933650504       -0.80135428870194
H            8.68650271036544        1.75159547353031        0.80385098190321
H            9.22910689461782        1.06417333754543       -0.75338417109545
H           10.05553107945350        0.60748892081910        0.75965906686945
H            6.96388878179363       -4.24812079116159        1.66304641285464
H            5.36423189357406       -3.47849233148497        1.80247856205882
H            5.93296427039908       -4.08232167955953        0.21899679052955
H            4.34764512732579       -2.35166318229930       -0.03270139866843
H            0.05449690044946       -1.78877525599598       -1.60710593471267
H           -0.82816047156260       -1.39660179351685       -0.12949877017699
H            0.78460680295070       -2.05631252645211       -0.01766049390757
H           -4.67465051069571        2.95052483408206       -0.17465944318795
H           -3.77655122678047        2.91069022530565        2.73098342979443
H           -4.89047607732581        1.75223359272348        1.99896827698727
H           -5.34737984722950        3.45294103635204        2.14168609358225
H           -2.63163764491706        4.67520367517226        1.27291247041146
H           -3.08533860809588        4.81060016301598       -0.43453945147302
H           -4.26132735309840        5.18060803767518        0.81990895966077
H           -0.63591572423732        2.79954593732822        2.74392085362358
