72
 energy: -0.143240991889 xtb: 6.6.1 (8d0f1dd)
N           -1.55834079402572        2.87223259581343        2.25276747184157
C           -1.60537417697738        2.16352652569500        1.21515072230040
C           -2.78299624786775        2.06510100450603        0.28047251596802
C           -3.34811643057560        0.65470488202029        0.34763887055209
C           -4.31455522932148        0.23969483178810       -0.57066182313001
C           -4.84953921249208       -1.03580062394560       -0.53369859928627
O           -5.79553279826451       -1.51910334127423       -1.39296919480207
C           -6.33732122877824       -0.64655608048801       -2.34972392615674
C           -4.42262100911847       -1.94203961342905        0.45872940761519
O           -5.00823027726640       -3.17526946706244        0.41757055437293
C           -4.68658285888343       -4.09630037990662        1.42675455866037
C           -3.47040700474595       -1.52808001915475        1.37106018671230
C           -2.94147184877198       -0.24448434419439        1.31427530750698
C           -2.22396574245101        2.30724422972702       -1.14500009983084
C           -1.28881903071160        1.19579633720926       -1.67928316746984
C            0.01758455770413        1.13165701455483       -0.95511173631809
N            0.74060589618726       -0.04263051657045       -0.55915922570462
C            2.10628513929801        0.10474867002371       -0.21209927579934
C            2.98633615011069       -0.40514216174643       -1.36529913414293
C            4.40159843290124       -0.37195711738196       -0.92688235191704
C            5.15702775216207        0.76449901423293       -1.10694518308299
C            6.46131203222288        0.82382159939187       -0.64001805940812
C            7.01089600470979       -0.25520427609775        0.03077043118890
O            8.28400187548824       -0.31511618825957        0.52305564084729
C            9.11886845109865        0.79166820230928        0.30932023373798
C            6.22398879774507       -1.40748855264760        0.25241794287272
O            6.85119164277849       -2.40736616311878        0.93681393195363
C            6.16191207280893       -3.60453578102737        1.16344550398172
C            4.93070639723574       -1.44720666431144       -0.22484791513337
C            0.36124837957718       -1.44808272369702       -0.56208834873258
C           -3.92744317977061        3.06891994023626        0.60090787635983
C           -4.54424790484224        2.77120188623229        1.96687313514828
C           -3.47197190430617        4.52555649459660        0.56087208000349
H           -4.64465710252207        0.92855165349819       -1.33068245146037
H           -6.80504162719263        0.22705693336328       -1.88382518246187
H           -7.09616730211942       -1.22437795008924       -2.87568123381172
H           -5.58135292409824       -0.30862423492145       -3.06648679945772
H           -4.93289279916661       -3.70856255836148        2.42140222727388
H           -5.29247560205453       -4.97794628749842        1.22282851644733
H           -3.62635168782758       -4.37415405139898        1.39785771073254
H           -3.13399447431412       -2.19528223749049        2.14882712959975
H           -2.21928584630757        0.05534328784391        2.05641455276321
H           -3.06015013940259        2.41262957129741       -1.84156668582115
H           -1.68107795098848        3.25280696896004       -1.13827956658581
H           -1.79935932783412        0.23866792984599       -1.59999672558964
H           -1.10231276402377        1.40662602018336       -2.74871144762839
H           -0.74218877284005        1.60950859622500        0.78492003270932
H            0.65309758993603        2.00118024999510       -1.09631762922811
H            2.30342817244982       -0.49612006088621        0.68754791449947
H            2.32648090763704        1.14634953325597        0.01487322978544
H            2.80909529392129        0.23653734657800       -2.22850026455670
H            2.67990733896680       -1.41714743582689       -1.62377801723644
H            4.73008510029348        1.60715162377618       -1.62925600371940
H            7.03826225535604        1.71761386598430       -0.81582819253809
H            8.72396126732287        1.69267561810461        0.79116681002013
H            9.26010181568282        0.98806094273818       -0.75959323739100
H           10.07425399548863        0.52184414326169        0.75899354261495
H            6.87134245263403       -4.25786956509302        1.67113418258471
H            5.29060875094105       -3.44843699658591        1.80588677921903
H            5.84467654059576       -4.07166005863201        0.22525824028386
H            4.29407503808759       -2.30167199936626       -0.06015902731651
H            0.34398869653722       -1.93056454379340       -1.55292199359499
H           -0.63385763174550       -1.56095727812968       -0.15242507775110
H            1.00862848261115       -2.03996071323030        0.08662143350008
H           -4.70495070989994        2.93834740399934       -0.16266235073444
H           -3.80045470542957        2.91819457803616        2.74050770986100
H           -4.90723123885388        1.74711513532079        2.01844956819989
H           -5.37536243746800        3.44600498088053        2.15724416474756
H           -2.66781790617398        4.67267454110497        1.27357402288246
H           -3.13331984889984        4.80851956934811       -0.43133014786710
H           -4.30296980478966        5.17661025372774        0.83104655273122
H           -0.67426586915291        2.83520498944861        2.75229909101701
