72
 energy: 37.515474517531 xtb: 6.6.1 (8d0f1dd)
N           -1.68543430235408        3.00682074706250        2.29397417130674
C           -1.71566833041110        2.20923051612430        1.31655082239796
C           -2.85293064191256        2.07660649034457        0.33836047389264
C           -3.40158347280890        0.66019098496596        0.38349214312690
C           -4.32506328726207        0.22178124259838       -0.56963138137074
C           -4.84512485417945       -1.06113739444925       -0.54450551508605
O           -5.75008956912108       -1.56447747786920       -1.43764295438712
C           -6.24907654780175       -0.70628167496823       -2.43080028821096
C           -4.45800790504034       -1.94577544139699        0.48353534497651
O           -5.03548696296203       -3.18577630114679        0.43935311894389
C           -4.72111686083085       -4.09312293416536        1.46147089989954
C           -3.54430356708844       -1.51101413236199        1.42636629431780
C           -3.02505681218754       -0.22383430294028        1.37457176299561
C           -2.27060986382076        2.33192896484805       -1.07056785101469
C           -1.35284507408933        1.20912646371936       -1.63217420980477
C            0.01867374661119        1.04544183930678       -1.00781964507709
N            0.85064389355161       -0.06760986951921       -0.57055527109273
C            2.20242454959200        0.31226802816658       -0.30304371662448
C            3.04801318933104       -0.18459949662726       -1.48496676107952
C            4.44869639589575       -0.26248912904486       -1.03699445668956
C            5.27440423421920        0.81792685163795       -1.19689809612340
C            6.56635506893065        0.79244209989096       -0.69750250318596
C            7.01813089356741       -0.32280587914823       -0.01062684033715
O            8.27789542399770       -0.46800781416222        0.50737836497641
C            9.18245316645917        0.58519552448940        0.29118440502735
C            6.14082016239168       -1.41015086541887        0.21335243493144
O            6.69080199720292       -2.43520751547925        0.93041791721292
C            5.93032077733579       -3.58160219124225        1.17672801142374
C            4.86157513572720       -1.36182221860093       -0.29877806603193
C            0.98990208885827       -1.64630698265124       -0.45316369265028
C           -4.01824916744761        3.05861920124613        0.63548360830475
C           -4.61663506165123        2.76369303824208        2.01019927556221
C           -3.59340771978682        4.52391012114020        0.57656007353825
H           -4.62411068530230        0.89819167689989       -1.35433154389091
H           -6.74279407138172        0.17392056910459       -2.00487797983157
H           -6.97746147968177       -1.29386111688914       -2.98845683959901
H           -5.45810591661042       -0.37452066099785       -3.11091799311039
H           -5.00569891615877       -3.70419756489948        2.44552224267112
H           -5.29902291964008       -4.99066860139062        1.24615512455615
H           -3.65356835705783       -4.34581766669840        1.46512636831996
H           -3.22975712997780       -2.16418860994644        2.22506496494094
H           -2.33294048168775        0.09356365551185        2.13770217095628
H           -3.10733868815292        2.45663610437968       -1.76977373689051
H           -1.73873431686361        3.28238233168481       -1.04451915420398
H           -1.88799113158116        0.27248287767749       -1.54284436810820
H           -1.25782329615066        1.44613594474928       -2.73055560978590
H           -0.86035362796037        1.56635024981120        1.01405626763925
H            0.53273982421516        2.02070394909447       -1.06445971373031
H            2.51697156049814       -0.20748846233137        0.61377754963546
H            2.31405236712516        1.37959726510080       -0.13143980715566
H            2.88868934428163        0.49424643105071       -2.31728440361621
H            2.69263735707681       -1.16212734240852       -1.78848430614639
H            4.89608714649088        1.67475133790054       -1.73132307286288
H            7.20289627903968        1.64636812215485       -0.86581351543645
H            8.83522844687526        1.51751509125310        0.75208206978833
H            9.34592816703470        0.75921392748801       -0.77912150912648
H           10.11504632484900        0.26349305536664        0.75607971853426
H            6.59618059936593       -4.27337052942061        1.69498057356227
H            5.07420032772816       -3.35698048208060        1.81754762230056
H            5.58148453216719       -4.04050063827365        0.24619425639116
H            4.13609054760874       -2.14462242361702       -0.13844490911673
H            1.20584176186130       -2.27066751638885       -1.34411670186902
H            0.02770492694693       -2.00443856487544       -0.14225305377985
H            1.67452902817034       -2.00799967004294        0.33133811412824
H           -4.79649003920079        2.89985753744645       -0.12262708850693
H           -3.86905942891621        2.93867318016431        2.77495049798821
H           -4.95278859855575        1.73104460350358        2.07842971063093
H           -5.46005223345084        3.42159241529833        2.20304301721578
H           -2.77913816481496        4.68424337600094        1.27321683549147
H           -3.27979292373189        4.80549616415665       -0.42384135903269
H           -4.43128790790264        5.16092780226719        0.86071481846416
H           -0.79568863182653        2.95655413390218        2.78694446216297
