  72
        -99.27524419
 N         -1.7821021372        2.7991817440        2.4583432441
 C         -1.7694870543        2.1528936316        1.3902573770
 C         -2.9341755926        2.0319058147        0.4468198694
 C         -3.4255279108        0.5925965354        0.4275227007
 C         -4.3601891415        0.1909911762       -0.5291575782
 C         -4.8599400696       -1.1003369875       -0.5554373416
 O         -5.7694502153       -1.5667859014       -1.4358388570
 C         -6.3579663219       -0.6782139725       -2.3563071728
 C         -4.4082278467       -2.0455228973        0.4050742713
 O         -4.9476831217       -3.2769942954        0.3049034441
 C         -4.6314600432       -4.2447269619        1.2782778722
 C         -3.4787239803       -1.6412618036        1.3497045441
 C         -2.9964952432       -0.3383125455        1.3607475139
 C         -2.3886877605        2.4307054128       -0.9495620079
 C         -1.4825235883        1.3735835064       -1.6061879858
 C         -0.1479195122        1.2592397445       -0.9767218916
 N          0.4771961191        0.1187825556       -0.7023058798
 C          1.8620455911        0.1209835247       -0.2946435078
 C          2.8038601189       -0.2210681364       -1.4664767235
 C          4.2330376779       -0.1726855139       -1.0070085505
 C          4.9548162792        1.0129869788       -1.0758374702
 C          6.2613599838        1.0734187815       -0.6338705971
 C          6.8731771958       -0.0618701366       -0.1043172406
 O          8.1447423425       -0.1270710192        0.3652237124
 C          9.0180089792        0.8368253074        0.2884534553
 C          6.1460724965       -1.2813953750       -0.0238247133
 O          6.8230235787       -2.3252214737        0.4896469141
 C          6.2027648686       -3.5899102526        0.5477433190
 C          4.8344216308       -1.3102124605       -0.4748871664
 C         -0.1647220352       -1.1634668879       -0.8697026979
 C         -4.1343309548        2.9488128643        0.8288091516
 C         -4.7479566939        2.5376870630        2.1651845187
 C         -3.7713302072        4.4307028347        0.8622693916
 H         -4.7147610809        0.9051593887       -1.2536601515
 H         -6.8655549626        0.1472545638       -1.8482058657
 H         -7.0904016024       -1.2683718641       -2.9036047317
 H         -5.6199318027       -0.2786234546       -3.0595203931
 H         -4.9039451060       -3.9067439790        2.2825008604
 H         -5.2214447326       -5.1219634744        1.0203138851
 H         -3.5682733057       -4.5049447580        1.2560621201
 H         -3.1303654906       -2.3317752985        2.1005268594
 H         -2.2989982431       -0.0524702320        2.1328241851
 H         -3.2313724039        2.6125085137       -1.6156182486
 H         -1.8354686057        3.3658467901       -0.8560025597
 H         -1.9988750984        0.4156439638       -1.6318465953
 H         -1.3257749295        1.6966748317       -2.6439210959
 H         -0.8749170740        1.6320448042        0.9949312338
 H          0.4302295494        2.1648191023       -0.8665386245
 H          2.0006892791       -0.6091616764        0.5073402095
 H          2.1248706205        1.1075487397        0.0929015639
 H          2.6459885306        0.5041023936       -2.2664824053
 H          2.5648869694       -1.2146893881       -1.8479734713
 H          4.5009101833        1.8998346191       -1.4898343852
 H          6.8022335968        2.0168427785       -0.7138297777
 H          8.8171963009        1.7967732188       -0.1728658012
 H          7.8169517106        3.5181584122       -0.9570121507
 H          9.9758776158        0.6042705281        0.7227001662
 H          6.9530295939       -4.2640956193        0.9555932761
 H          5.3304057849       -3.5779184831        1.2083478662
 H          5.9074172123       -3.9364945648       -0.4471554422
 H          4.2713190405       -2.2290994733       -0.4303794043
 H         -0.3544868248       -1.3769747912       -1.9238906965
 H         -1.1147761577       -1.1873863597       -0.3298474016
 H          0.4793311794       -1.9422105189       -0.4694109724
 H         -4.8937674335        2.8037844625        0.0518599853
 H         -4.0293846014        2.6833548478        2.9652438482
 H         -5.0568998232        1.4952876571        2.1524516865
 H         -5.6217792769        3.1509801673        2.3686274070
 H         -2.9903388415        4.6118001968        1.5944172454
 H         -3.4443659800        4.7915724672       -0.1094623976
 H         -4.6473331798        5.0050212810        1.1522931323
 H         -0.9260717825        2.8371010640        3.0026656196
