72
 energy: -99.353416072588 gnorm: 0.002011930332 xtb: 6.6.1 (8d0f1dd)
N           -1.95156449134636        2.87460939916362        2.20712968135843
C           -1.91721480023866        2.16813789650090        1.17865422900913
C           -3.07789952615085        1.95552950858383        0.24652194450604
C           -3.53201819425803        0.50562006138936        0.32412027062918
C           -4.46979513147087        0.02372688387826       -0.59140517569023
C           -4.92974173706933       -1.28156750910114       -0.53793773899166
O           -5.84037703128559       -1.82166641881720       -1.37275814066746
C           -6.47510840499618       -1.00239834158259       -2.32637928669699
C           -4.42897183359602       -2.15995205048638        0.46157103982504
O           -4.92519556196693       -3.41215752136268        0.43401409341623
C           -4.54247267343829       -4.32442579901110        1.43685887456805
C           -3.49874423948124       -1.67494069326808        1.36710711457959
C           -3.05975219754119       -0.35857558672783        1.29996810390306
C           -2.54546209904333        2.26934028437016       -1.17647504081153
C           -1.61670046739896        1.19052530978460       -1.76136917256669
C           -0.27448340067398        1.16364877700370       -1.13965310211613
N            0.39118382648354        0.07023681297230       -0.79643965431360
C            1.77553113886816        0.15135097097796       -0.39280355367992
C            2.72995738796765       -0.22010112851479       -1.54395331788515
C            4.15285477315101       -0.10718984793891       -1.07502907050006
C            4.86661707670223        1.07268613719160       -1.23675521804680
C            6.16476922389306        1.19955098786398       -0.77706190547379
C            6.78120569850202        0.12812369622264       -0.12845814525634
O            8.02727129621574        0.12853239327313        0.36884767811138
C            8.84067798244833        1.27028485919136        0.22335338048784
C            6.06107460939407       -1.06317205788769        0.03521146592590
O            8.73030871533269       -2.83778750808790        1.64358157665681
C            7.79651352364072       -3.54574746456653        1.86813142748381
C            4.77199428316097       -1.17490672979923       -0.42809362069683
C           -0.19827888413304       -1.24462495492217       -0.88364654220588
C           -4.29882646605048        2.86834711390843        0.56738626661076
C           -4.91173013354977        2.52580003585432        1.92311141322382
C           -3.96735773093797        4.35697199824784        0.51268372686377
H           -4.85774610257684        0.68506749169102       -1.34814859756279
H           -6.99536254004462       -0.16475677000374       -1.85232266022269
H           -7.20164719367447       -1.64246893139539       -2.82296189037538
H           -5.76478823611680       -0.62184031254171       -3.06758961692269
H           -4.80895909711932       -3.95952543359166        2.43311591962908
H           -5.09577033431925       -5.23764625707612        1.22710139928765
H           -3.46892334521800       -4.53524651344414        1.39950024537266
H           -3.11574812803667       -2.31228006605756        2.14748207984905
H           -2.36007295989738       -0.00979543601415        2.04364011444004
H           -3.39432164704630        2.38412155053674       -1.84951348815129
H           -2.01445358073777        3.22157371063098       -1.15124629394477
H           -2.10489557757163        0.21900025623497       -1.70753314093065
H           -1.47796705289693        1.43617288980529       -2.82244709351120
H           -1.00645680187282        1.65204188782932        0.81617406169407
H            0.26905789487380        2.09590451555731       -1.08801986770189
H            1.94367084660572       -0.52491825314073        0.44947541388751
H            1.99825302714841        1.16846184111464       -0.06348260889836
H            2.55369839153326        0.45620836868447       -2.38202029380872
H            2.52546209205198       -1.24001167344578       -1.87268195191500
H            4.40692081961049        1.91017720510236       -1.74138114131562
H            6.68915143495257        2.12931948381636       -0.92814892091115
H            8.40852447487933        2.13706200930444        0.73271707701504
H            9.00777955360235        1.50997914395834       -0.83081317421313
H            9.78888340805315        1.01169008593608        0.69039209295858
H            7.52052459405235       -4.39723398707678        1.22217004115195
H            7.13541897946397       -3.40497636891311        2.74031174757087
H            6.55085827070826       -1.88676951706481        0.52749875410281
H            4.23854877088707       -2.10547604858102       -0.29866994515446
H           -0.39256591422214       -1.52248713596429       -1.92156495842454
H           -1.13935725714545       -1.27814281571582       -0.32899598926361
H            0.48398704701540       -1.97250374414812       -0.45252183478501
H           -5.05053872565998        2.66146277900719       -0.20287933635356
H           -4.20148536695273        2.73513823538336        2.71647735144422
H           -5.19810014902318        1.47804214500574        1.97227539458256
H           -5.79965621763032        3.13126306732757        2.08443918253352
H           -3.20620389554101        4.60159317081961        1.24707524528519
H           -3.62701081140626        4.66227621055792       -0.47322093808173
H           -4.86104639521267        4.92911883764975        0.74739137917321
H           -1.09941120965184        2.97073438641348        2.75015748351063
