  25
        -42.14061810
 C          4.4418108167        0.0507176087        0.4427379669
 N          3.0781044726       -0.3185004114        0.3186730990
 C          2.6985689244       -1.4860588967        0.0292521081
 N          1.3790458717       -1.8208866085       -0.0923097908
 C          0.3288770796       -0.9648908836        0.0795673778
 C          0.3128323003        0.3558974814        0.4416806299
 C         -1.3747593857        2.9080314835       -0.4028974359
 O         -1.0573001953        3.3083732140       -1.4371363204
 N         -1.0095684366        0.7442313598        0.4839019883
 C         -1.5699624247        2.0554842659        0.7300680970
 C         -1.8247761734       -0.3236526427        0.1220398543
 O         -3.0267275182       -0.2937706907        0.0497985286
 N         -0.9692115527       -1.3784677092       -0.1098732463
 C         -1.4311711440       -2.6875177139       -0.4951251034
 H          4.6022958912        0.4491520722        1.4457948589
 H          5.1350195774       -0.7793794416        0.2661973041
 H          4.6481121774        0.8519957458       -0.2687360577
 H          3.3784491480       -2.3258876780       -0.1512692330
 H          1.1302554146        0.9995328118        0.6839982807
 H         -2.6539097686        1.8997814838        0.8849329076
 H         -1.1489625531        2.5097928693        1.6375298982
 H         -1.1538968113       -3.4335318511        0.2514564862
 H         -1.0348225753       -2.9692720850       -1.4719744504
 H         -2.5178554744       -2.6374532530       -0.5559346064
 H          1.1578557440       -2.7771855600       -0.3319605298
