  72
        -99.29498475
 N         -1.7726824705        3.0471485622        2.4338807317
 C         -1.7431838828        2.3685113057        1.3874341963
 C         -2.8944141551        2.2205642005        0.4303673320
 C         -3.3507226657        0.7745226076        0.4112570746
 C         -4.2618850672        0.3421591303       -0.5554349095
 C         -4.6859533632       -0.9700817442       -0.6219514829
 O         -5.5762557088       -1.4548881589       -1.4984250737
 C         -6.2421112739       -0.5811898323       -2.3797163723
 C         -4.1603003365       -1.9802530949        0.3077263872
 O         -4.4718015033       -3.1756157133        0.2231778332
 C         -5.0863346671       -6.4045341428        1.8793768261
 C         -3.2680176712       -1.4698260001        1.3059895728
 C         -2.8908617020       -0.1528675807        1.3536980284
 C         -2.3351752023        2.6236346718       -0.9617470341
 C         -1.4628977183        1.5512025486       -1.6424487080
 C         -0.1515790957        1.3372705580       -0.9930109323
 N          0.3841226371        0.1585995257       -0.7191111278
 C          1.7556793014        0.0658169367       -0.2753246019
 C          2.6977610154       -0.2986724000       -1.4396021526
 C          4.1298601339       -0.2416069341       -0.9877464715
 C          4.8477079977        0.9408316669       -1.0774947279
 C          6.1641587463        1.0070192298       -0.6499601312
 C          6.7902679252       -0.1111306947       -0.1165754217
 O          8.0591998969       -0.1640109291        0.3236292369
 C          8.8651878283        0.9894469176        0.2439064019
 C          6.0593355278       -1.3286573106       -0.0142265717
 O          6.7427537227       -2.3625246191        0.5109779803
 C          6.1187067245       -3.6197368399        0.6242239798
 C          4.7428139744       -1.3693945180       -0.4478207896
 C         -0.3131782758       -1.0826915409       -0.9606331778
 C         -4.1173746828        3.1173406893        0.7895123735
 C         -4.7408574472        2.6964372909        2.1182474318
 C         -3.7843428585        4.6057773294        0.8188664570
 H         -4.6505378690        1.0565439695       -1.2647188476
 H         -6.7810606033        0.1997602180       -1.8345100272
 H         -6.9532161269       -1.1989599262       -2.9249525759
 H         -5.5462979468       -0.1198402326       -3.0882129960
 H         -5.4595816433       -6.2025538143        2.8634870724
 H         -5.6707589694       -6.1561191450        1.0212563971
 H         -4.1160783788       -6.8373105374        1.7563572085
 H         -2.9036324350       -2.1761356915        2.0357389530
 H         -2.2334773036        0.1746162364        2.1460496230
 H         -3.1717264646        2.8403922933       -1.6254150060
 H         -1.7545079762        3.5405492331       -0.8526263140
 H         -2.0228284681        0.6213786392       -1.7230551850
 H         -1.2650860267        1.9150142520       -2.6592555445
 H         -0.8448087173        1.8317537149        1.0228166628
 H          0.4790703353        2.2022321534       -0.8435907845
 H          1.8283680974       -0.6928412798        0.5076745660
 H          2.0673679808        1.0237391710        0.1459169872
 H          2.5392704490        0.4142785151       -2.2508520846
 H          2.4580038511       -1.2974276463       -1.8058791736
 H          4.3870257193        1.8218293819       -1.4980894964
 H          6.6994619802        1.9375686637       -0.7429828782
 H          8.4507032426        1.8095604823        0.8379580532
 H          8.9937251830        1.3164990348       -0.7922102934
 H          9.8308958051        0.6996009347        0.6534059453
 H          6.8711883031       -4.2816897041        1.0484501280
 H          5.2540995744       -3.5795051946        1.2943120358
 H          5.8088478283       -4.0032308857       -0.3527586968
 H          4.1834369929       -2.2894919904       -0.3828029593
 H         -0.5100200780       -1.2240128263       -2.0248766944
 H         -1.2626625154       -1.1030217116       -0.4203991418
 H          0.2955813037       -1.9110575333       -0.6090197820
 H         -4.8624901239        2.9521817859        0.0024855482
 H         -4.0358283816        2.8540286030        2.9286228100
 H         -5.0314916314        1.6481550130        2.1016564166
 H         -5.6280693817        3.2943548548        2.3103121836
 H         -3.0321220341        4.8082084007        1.5756729805
 H         -3.4292686169        4.9626466406       -0.1446557451
 H         -4.6808515161        5.1660677378        1.0716875951
 H         -0.9308062712        3.1035083238        2.9975457146
