25
 energy: 100.747213452005 xtb: 6.6.1 (8d0f1dd)
C            3.24951873718348        1.17058760991340        0.05865599154157
N            2.26145347293654        0.10395170938254        0.02401364421182
C            2.61544040546645       -1.16753955509821        0.03923940299917
N            1.52215071094154       -1.95675106021015        0.00360538473531
C            0.36120640855460       -1.14076182711597       -0.01024265169938
C            0.88866307397338        0.17324155231506       -0.00390375908555
C            0.03249048252314        1.36784534987425       -0.04047136219763
O            0.58857827917572        2.47273824281569       -0.02098048880900
N           -1.31457142328653        1.11931772761464       -0.04240102804060
C           -2.13048910692788        2.27881742009527        0.06953479017865
C           -2.71625751442955       -0.21373369092082       -0.71921050794482
O           -3.80012820699013       -0.11556065989117       -0.36399448732063
N           -0.88202379597036       -1.45579832339921       -0.00679952312768
C           -1.34543056864837       -2.79130629361391        0.01683685666433
H            3.71840406852895        1.24175462183087        1.04535938785152
H            4.04824673573109        0.97903252346592       -0.66581847213441
H            2.76201412439418        2.12238347190405       -0.15237111407933
H            3.62275787139818       -1.52768042535545       -0.03241448555610
H           -1.50179572949472        3.15602093539533        0.16702711674681
H           -2.73385307923533        2.39261922332917       -0.83201662140338
H           -2.78453915177195        2.16418299947831        0.93453313597127
H           -1.20859180659829       -3.19205642058098        1.02677428403161
H           -0.83075945350245       -3.38785172915068       -0.73662807219897
H           -2.41015397278056       -2.82648000356990       -0.21435308586532
H            1.56057165138479       -2.95794805823382        0.03294189174769
