25
 energy: 103.354129402209 xtb: 6.6.1 (8d0f1dd)
C            3.32552360663509        1.19328815334262        0.05131668281201
N            2.37928588357431        0.10489219386123        0.02763647830419
C            2.72209968069230       -1.17678404274703        0.00911574327342
N            1.61416998013829       -1.94003668133861        0.01388638909826
C            0.47232349799092       -1.09847669584301        0.04469018453255
C            1.01811934776187        0.21979338840129        0.05138688095172
C            0.26525537891019        1.48577458236360        0.03537631700217
O            0.83283407552145        2.58918330036361       -0.02805318266511
N           -1.03582368710855        1.26903622530243        0.07976993057725
C           -2.01013978958773        2.29119346535278        0.08566739261449
C           -4.07591876833778       -1.09515268733674       -0.73164009556559
O           -4.30044807084554       -0.03266583730976       -0.42510929875552
N           -0.75927702190091       -1.41532845407089        0.06624235151382
C           -1.29018587443023       -2.73539045706300        0.02910427970770
H            3.78423377259475        1.27099405060038        1.03851098763562
H            4.10562696024478        1.02897452674029       -0.69147911251147
H            2.78662009812913        2.12061191873545       -0.15883581530636
H            3.72789280557668       -1.54641338691979       -0.00662994530996
H           -1.58403470150268        3.29837770618493        0.16071389507196
H           -2.60583467053645        2.22063120954581       -0.83130775390848
H           -2.68745091500945        2.11677671708712        0.92819291000273
H           -1.15444084999775       -3.24779212491505        0.98915618225144
H           -0.85928823999186       -3.35894262099889       -0.76440782883828
H           -2.36274479258863       -2.62769200520620       -0.15153266838247
H            1.60381659904039       -2.94582365538888        0.00526300808839
