25
 energy: 104.185695859704 xtb: 6.6.1 (8d0f1dd)
C            3.32400363623031        1.19703580490016        0.05373229151675
N            2.38900685552598        0.10030431369116        0.03143479137575
C            2.74183715654173       -1.18267629880153        0.00779822432002
N            1.63592447441082       -1.94944691036004        0.01046887805213
C            0.48788397339113       -1.11623721902466        0.05751950151468
C            1.02720265142744        0.20411666673540        0.06620305765720
C            0.26784301011890        1.46123583074373        0.04793182416547
O            0.80903639769797        2.57805106690630       -0.02516354495932
N           -1.03103566535863        1.20182153412036        0.08878875145679
C           -1.98775392764153        2.24826836245970        0.08540862044817
C           -4.02824361709598       -0.76574870995169       -0.92871891315136
O           -4.57564179802422       -0.03069526245401       -0.27551508492620
N           -0.73296721206376       -1.46578642506087        0.10784988720883
C           -1.26794922931618       -2.78323123530968        0.03208320688272
H            3.78596682676196        1.28004717572603        1.04005907167443
H            4.10495181823591        1.03848009465031       -0.69147516197601
H            2.77608211655636        2.12051427196931       -0.15461505290423
H            3.75288043545986       -1.54036195776441       -0.00328061447357
H           -1.55187242471525        3.25998596234248        0.17806105363167
H           -2.59369813483797        2.20596053366083       -0.82944082298664
H           -2.67958972707208        2.09516588716009        0.92054975506692
H           -1.16088147345693       -3.29735166463347        0.99462615774809
H           -0.82239449679779       -3.43300249121348       -0.74043622868323
H           -2.32949545043099       -2.66839429855195       -0.17661166364160
H            1.60584729148575       -2.95380111453951        0.00102509639281
