25
 energy: 104.027837895200 xtb: 6.6.1 (8d0f1dd)
C            3.32737896476153        1.19819473864386        0.05558428409025
N            2.39535267744089        0.09861751427412        0.02887662432016
C            2.74763049394115       -1.18156062387936        0.01330816436536
N            1.63975564961135       -1.94749043205803        0.00816786997403
C            0.49538115126878       -1.11545209365120        0.05251101506341
C            1.03452929017777        0.20608634130527        0.05406450726122
C            0.28237065353898        1.46867607292545        0.04617710343791
O            0.82550501999722        2.58379400542282       -0.01822494161675
N           -1.01483771849661        1.21045695591045        0.06692817508817
C           -1.99081093850144        2.24470105940786        0.07586046906441
C           -3.98587740009437       -0.89400197467561       -0.84668556471772
O           -4.51090193359250       -0.04820332652745       -0.32515692499932
N           -0.73286223785505       -1.44472973341596        0.07363488099657
C           -1.27430354320648       -2.76242826493468        0.02888297086979
H            3.78384530276990        1.27382850581395        1.04523011839113
H            4.10801636031010        1.04359731760390       -0.68736310443149
H            2.77780879139858        2.12104127574952       -0.15007293855380
H            3.75785451054474       -1.54019724922996       -0.01000668237757
H           -1.56053235539700        3.25583891167764        0.15397214930028
H           -2.59658797541241        2.18260579866860       -0.83720616500179
H           -2.67394041681898        2.08817405541349        0.91940936203657
H           -1.14585267019577       -3.27456515882928        0.99005706696318
H           -0.85447549437984       -3.40886755499416       -0.76140882128432
H           -2.34061172741654       -2.64162070768627       -0.15601797215152
H            1.62592946103612       -2.95196125688889        0.00588760176062
