25
 energy: 103.889566855462 xtb: 6.6.1 (8d0f1dd)
C            3.32811794818477        1.19282295882287        0.05801800674650
N            2.39073514275810        0.09456307099527        0.02870446980019
C            2.73677443397908       -1.18745980544538        0.01791240544626
N            1.62186539486218       -1.94621598059089        0.01293822365849
C            0.48286489578010       -1.10908064165057        0.04369689744072
C            1.03153072319583        0.21015941195075        0.03882635278397
C            0.28871215533371        1.47817268523708        0.03235396322760
O            0.85010258148675        2.58487225660323       -0.01255491614905
N           -1.01253494258969        1.22927336590168        0.05731471386645
C           -1.99432452276423        2.25752885374826        0.07821172939543
C           -3.96862395176458       -0.99777980561875       -0.77526283300777
O           -4.38718437363604       -0.02811655180235       -0.38593138311895
N           -0.75074721759671       -1.41979714177815        0.03896183537059
C           -1.28684269420719       -2.74241412693511        0.01850659974628
H            3.78552688634744        1.26733363455477        1.04596370522990
H            4.11065783493540        1.03182859417894       -0.68303672413259
H            2.78565086033311        2.11829828014254       -0.14905995261177
H            3.74389479677666       -1.55845788797878        0.00399538287734
H           -1.56888913949874        3.26305534019942        0.15310143615958
H           -2.58908632459641        2.18868988049257       -0.83512953275570
H           -2.67882024473378        2.10418657440371        0.92130549511119
H           -1.12778907298249       -3.24965129801373        0.98027140679595
H           -0.87333582826857       -3.38470976719473       -0.78150115743131
H           -2.36304080819097       -2.62601009774730       -0.14189919276410
H            1.61277339486437       -2.95061065767691        0.01966232357715
