25
 energy: 42.759966108555 xtb: 6.6.1 (8d0f1dd)
C            3.25379497077095        1.17803230425841        0.06253075882897
N            2.26309792005037        0.12417365702060        0.02524062259102
C            2.59627636947640       -1.19345725156553        0.06976212485513
N            1.43914482006868       -1.94462097144587        0.01021483699474
C            0.33490693970574       -1.10906285046291       -0.04334141486763
C            0.87088090844011        0.17600328231198       -0.01761494892422
C            0.02273466061771        1.31233383777013       -0.05975943727933
O            0.49090137274413        2.45882910620149       -0.04094754326781
N           -1.42142632003611        1.00344648486350       -0.10955169941561
C           -2.17899330294996        2.23329826377810        0.03505596994547
C           -2.25301090860425       -0.13479936678649       -0.41558310520036
O           -3.44976970380669       -0.25735857824059       -0.44906961575081
N           -1.00693973952640       -1.36955464426075       -0.10352512150541
C           -1.39633102449351       -2.74409757333615       -0.00084973182318
H            3.73599760369863        1.24925269740774        1.04627859219354
H            4.04994446034036        0.99512301784606       -0.67227826841257
H            2.75302387226437        2.12276654436631       -0.14135175136564
H            3.59504096655662       -1.56739371745406       -0.01645347780125
H           -1.52620120506978        3.10090363553780        0.11926844281580
H           -2.77451203797069        2.33956553163109       -0.86254259198783
H           -2.80832699160918        2.14729582173055        0.91567831445563
H           -1.16746125740164       -3.15642303048053        0.99560864926162
H           -0.90488081499068       -3.33362410001474       -0.78353033107720
H           -2.46563566686058       -2.79577918574213       -0.17604985946666
H            1.49641977575275       -2.94677170362002        0.02842958960607
