25
 energy: 7.927869538227 xtb: 6.6.1 (8d0f1dd)
C            3.25150352454907        1.18325091485612        0.07054815684777
N            2.28339705874456        0.12465405644013        0.02267459433106
C            2.58821376678153       -1.21962930990452        0.04081344448255
N            1.40640306501462       -1.93201959039806        0.00501998054058
C            0.33199453564794       -1.07787980906970       -0.02146094310281
C            0.87973683735681        0.19838912316088       -0.00158541159232
C            0.05054790435214        1.32214881713713       -0.03269293788370
O            0.46322703409829        2.48840429962868       -0.03776291041486
N           -1.37845163087078        0.98806556776720       -0.07411745894284
C           -2.19868410737607        2.18529585920682       -0.00316587807405
C           -2.05690425645200       -0.22036872981417       -0.25117722281609
O           -3.25264181567395       -0.35617486489968       -0.34755204331615
N           -1.04938532923797       -1.31257551066538       -0.09313549602859
C           -1.44425651997271       -2.69658870933665       -0.02835809585773
H            3.73814677558154        1.24054072728326        1.05227109877879
H            4.03718095961947        1.02789433138901       -0.68054878318777
H            2.72872641647785        2.11774514675336       -0.11841272611313
H            3.58773390223463       -1.60796103037722        0.01267254450927
H           -1.58496873055257        3.08585812998428        0.05831456978516
H           -2.79279300660321        2.23033501878370       -0.90743389920637
H           -2.84129305477104        2.11326784791219        0.87010714890963
H           -1.16493179082513       -3.16815266921360        0.92532422519900
H           -1.01086979574126       -3.26161653226856       -0.86008970989763
H           -2.52063255972299       -2.70077917027649       -0.13619567660788
H            1.43608619134866       -2.93715024440360        0.01206940922572
