25
 energy: 15.762156834214 xtb: 6.6.1 (8d0f1dd)
C            3.25439881190995        1.18338322998682        0.06635202024611
N            2.27630713697808        0.12815276767268        0.02117975360950
C            2.58673047127706       -1.21110116634838        0.05064976278200
N            1.41307534398309       -1.93484738784671        0.00583221659434
C            0.32966865239141       -1.08669528663923       -0.03517337581354
C            0.87376721521878        0.19089516641956       -0.01182246103290
C            0.04036905746655        1.31301063895807       -0.05167914281343
O            0.46901992746707        2.47422111883513       -0.04271443205139
N           -1.40549387713424        0.98434389803676       -0.09191004698391
C           -2.19533441240162        2.19833352358402        0.00781188392400
C           -2.11700453556743       -0.20494356166255       -0.29493614262953
O           -3.30808376263105       -0.34173606871226       -0.41868434146323
N           -1.04843944664572       -1.32387879727161       -0.10417861861192
C           -1.43195617255372       -2.70918891335201       -0.02028569375831
H            3.74293127968999        1.24711396811965        1.04750326509503
H            4.04469497326760        1.02037793345154       -0.67926062737250
H            2.73748188523253        2.12015700859420       -0.12664322433164
H            3.58770126689667       -1.59188427991041        0.01256486963772
H           -1.56482954763140        3.08666484505983        0.07976161314726
H           -2.78966418623582        2.26926431760411       -0.89401846677007
H           -2.83183890020838        2.12324193827126        0.88468021418489
H           -1.16331253153450       -3.15862525834501        0.94853141758143
H           -0.97551317631036       -3.28302925313559       -0.83443622817471
H           -2.50648371655771       -2.73499269425041       -0.14993357798155
H            1.45496810129803       -2.93913626873120        0.01716837865626
