25
 energy: 105.917938286954 xtb: 6.6.1 (8d0f1dd)
C            3.28029199324717        1.17573710512990        0.05017627085304
N            2.31232537293485        0.10425912809720        0.01600344104353
C            2.67902607437901       -1.16594748512248        0.00535160419991
N            1.60386220070295       -1.96161082396397        0.01244912828717
C            0.43749855551097       -1.14207396534360        0.03302654250121
C            0.94578677165676        0.19283095938634        0.02445105093881
C            0.13764652173005        1.42033504874271        0.00229145215137
O            0.69934024402805        2.52682354044895       -0.03644423318407
N           -1.18474404580282        1.18883220086771        0.02083760758255
C           -2.05228234469774        2.30595785518621        0.11019525213512
C           -3.35774507051751       -0.37174074341922       -0.95720890424536
O           -4.24012415786342       -0.03121719565951       -0.33995116368529
N           -0.76432461975436       -1.51123529840348        0.08031357475356
C           -1.26552185819246       -2.82720942547293        0.04182017067339
H            3.73901223072432        1.24342343343028        1.04014556631524
H            4.06798827010662        0.98455132733425       -0.67953226302726
H            2.78476921574434        2.12152748634417       -0.17173534276158
H            3.68766266125999       -1.52474931631922       -0.01545692179302
H           -1.47631742370438        3.21194395111542        0.24231328954727
H           -2.66134878085487        2.40751992529348       -0.79240879911479
H           -2.73553392798370        2.17279404511813        0.95692837247708
H           -1.23223307179147       -3.24640482020121        1.04661388005035
H           -0.69612038997647       -3.44112492959761       -0.63980123375289
H           -2.29931653031799       -2.81932177045441       -0.28896820992601
H            1.63950450354089       -2.96392122184206        0.02632251215755
