25
 energy: 103.446863567546 xtb: 6.6.1 (8d0f1dd)
C            3.32690782978462        1.19240005299816        0.05410351276987
N            2.38502742149680        0.09902718597063        0.03276197120978
C            2.72901604580257       -1.18218451850884        0.01518366950702
N            1.61716693405433       -1.94259740988977        0.02270030073508
C            0.47809606317433       -1.10177971074068        0.04580224616573
C            1.02623523509396        0.21721123165876        0.04439028692988
C            0.27701477115718        1.48507045519698        0.02795183393145
O            0.84693988799612        2.58815137733336       -0.01784250036648
N           -1.02410256708873        1.25170399963051        0.05915859839556
C           -2.00453222278225        2.27706629994543        0.07862460202330
C           -4.04344339635608       -1.07920860859031       -0.74298039174409
O           -4.26456053042965       -0.01633643379921       -0.43095312703311
N           -0.75672630976588       -1.40117911888178        0.02035110932232
C           -1.28354604403317       -2.72872252595849        0.02349537922935
H            3.78560060119280        1.27472214117565        1.03856268243747
H            4.10605148314038        1.03000006496420       -0.69008750052622
H            2.77830792231797        2.11426945801509       -0.15833472368954
H            3.73243887008454       -1.55985940216410        0.00647765980321
H           -1.56981657469411        3.27726690503325        0.15262115498031
H           -2.60372761347188        2.21474011857842       -0.83782614346868
H           -2.68155441312940        2.11669685376136        0.92709450862620
H           -1.13789972307989       -3.22745835962273        0.98950951565274
H           -0.85368948651033       -3.37499254194552       -0.75623845863192
H           -2.35821940536894       -2.62804190154089       -0.14708243373744
H            1.62058097842681       -2.94767633825380        0.01808324240401
