25
 energy: 105.111230050177 xtb: 6.6.1 (8d0f1dd)
C            3.30233536546406        1.18604453498494        0.05491340471519
N            2.34800500219486        0.10345575541806        0.02743930559107
C            2.71794906329780       -1.17067872487833        0.00009156587776
N            1.63615699091079       -1.95864383615337        0.00139080223692
C            0.46324595746801       -1.14145387317965        0.04345074328519
C            0.98091335873145        0.19032910527865        0.06059369062770
C            0.20230776456226        1.43515250590378        0.03480295210857
O            0.76916784013442        2.53973921924867       -0.03950049586664
N           -1.10929881641584        1.19121144794025        0.07196209093256
C           -2.01695264727608        2.28306995674183        0.09915504251337
C           -3.74456954765248       -0.50862335986207       -1.00693728713442
O           -4.47956164856113        0.00416173485244       -0.32095751656082
N           -0.73724485615399       -1.53600074800708        0.15966874109114
C           -1.26413222265239       -2.84076875537214        0.05011581218376
H            3.76344720976177        1.26679058804704        1.04055210804794
H            4.08881412657403        1.00782180177380       -0.67948467998442
H            2.77610730133749        2.11504411170884       -0.16988154075443
H            3.73242318273283       -1.51656701276361        0.00577702508745
H           -1.50687559967979        3.24645659338104        0.22713448624855
H           -2.62472895465130        2.31361227445202       -0.81805874505320
H           -2.70835459488804        2.14213252025514        0.93689370560703
H           -1.21052426484005       -3.31698835352045        1.03355061334726
H           -0.73263364460326       -3.46812661001858       -0.66917944294428
H           -2.32309744802593       -2.75336283003548       -0.23874684442758
H            1.61268600156710       -2.96462726986114       -0.00308521361975
