25
 energy: 26.403975849298 xtb: 6.6.1 (8d0f1dd)
C            3.25777473489319        1.18255865003658        0.06380271138078
N            2.27074752541874        0.12888521732751        0.02355158337822
C            2.59099964598568       -1.20293557447367        0.06332240898329
N            1.42434217505301       -1.93857236484605        0.00395425794763
C            0.33201306504765       -1.09728648707495       -0.04437329409080
C            0.87112828591910        0.18276811481773       -0.01768414947492
C            0.03100311239379        1.30925786130462       -0.06149495480864
O            0.47937356152797        2.46381690791483       -0.04781364966983
N           -1.41501492636357        0.98965781351980       -0.10373437796088
C           -2.18852836432014        2.21257526768759        0.02098096554954
C           -2.17329189855679       -0.17973563637760       -0.35731876880846
O           -3.36430989783973       -0.31248123000413       -0.47872476432842
N           -1.03836929704170       -1.34120197418186       -0.11208300153690
C           -1.41891211643105       -2.72441558343729       -0.01049880479704
H            3.74902018720380        1.25088101850871        1.04367961821197
H            4.05059923159274        1.00905640757280       -0.67671168931280
H            2.74898870165492        2.12340154907675       -0.13273885252645
H            3.59079990260045       -1.57776136641425       -0.00142568826607
H           -1.54755023651899        3.09154050419749        0.10304498918629
H           -2.78131108295186        2.30468729368395       -0.87987030015940
H           -2.82316933778541        2.13166828925352        0.89847632787538
H           -1.16621230007654       -3.15414721613532        0.97306086862412
H           -0.94597728083527       -3.30857892790398       -0.80844230210896
H           -2.49105775225132       -2.76572454516441       -0.16053505141221
H            1.47751763359641       -2.94162859986994        0.02038133327521
