25
 energy: 103.246327958838 xtb: 6.6.1 (8d0f1dd)
C            3.32398300751020        1.19251852041867        0.05031725492245
N            2.37607444962350        0.10542162922934        0.02258416745887
C            2.71887117899550       -1.17627300331662        0.00697673497924
N            1.60984253407272       -1.93953873534675        0.01449264492094
C            0.46706111371390       -1.09749774731732        0.04408357178933
C            1.01563608401929        0.22184219406595        0.04924398364467
C            0.26266882080736        1.49043189163071        0.03240596132034
O            0.83128476212780        2.59244958879041       -0.04068153668598
N           -1.03719513753051        1.26654613765666        0.07973565897650
C           -2.00996819854552        2.29571868721243        0.08929380866014
C           -4.08226400237204       -1.11785510829393       -0.75014667628153
O           -4.29051645311898       -0.05584100164403       -0.43492606091293
N           -0.76661284881606       -1.40960787857455        0.06148731765328
C           -1.28849042246282       -2.73803301842647        0.03324868063479
H            3.78376622583698        1.26307375190401        1.03784575963179
H            4.10284035477499        1.02948574255761       -0.69409847163891
H            2.78115368837055        2.11916840595534       -0.15521227209026
H            3.72221073403249       -1.55287511520406       -0.00452737174424
H           -1.58132210651580        3.29987887341783        0.16080925818041
H           -2.60846209829901        2.22758042058579       -0.82537835769772
H           -2.68719524122289        2.12228247641727        0.93072322811229
H           -1.14381967768819       -3.25216279653814        0.99136982795139
H           -0.85576076066144       -3.35093944685199       -0.76716723079681
H           -2.36069418520274       -2.63723188977509       -0.14678972798353
H            1.60613976507746       -2.94581480957902        0.00939916648633
