25
 energy: -42.061931039393 gnorm: 0.002585499942 xtb: 6.6.1 (8d0f1dd)
C            5.62242911072282        1.08964609477050        0.09801389900920
N            1.91087980410068        0.25463545505481       -0.02857982685135
C            2.27719520774196       -1.02063765790640       -0.03264526258551
N            1.17229006089950       -1.79766106948154       -0.02411822117428
C            0.07477885182628       -0.98214517421258       -0.01646302297098
C            0.54137755110416        0.32146892250917       -0.02025379931350
C           -0.36440569950560        1.46098691729229       -0.01313381755579
O           -0.02426553514837        2.61677303266498       -0.00584850617554
N           -1.69281627566771        1.04145696522794       -0.02040326528591
C           -2.71831177932744        2.07825894009268       -0.03080011267268
C           -2.18145578090413       -0.25200689954706       -0.01372824261019
O           -3.35304576013107       -0.50010970241164       -0.01401440095558
N           -1.22798834933143       -1.30054855694537       -0.00717974573656
C           -1.69563676463765       -2.67286425859941        0.01278930423066
H            6.02047099601087        1.36588767602405        1.06486438770123
H            6.21876033472677        1.28496847915466       -0.78096413282747
H            2.53220131608702        1.05576993600126       -0.02880191143463
H            3.28688050984213       -1.38102443335771       -0.03484547336661
H           -2.21996629095941        3.04436893701737       -0.04013201897811
H           -3.34495602962008        1.96633135689625       -0.91444337133343
H           -3.34738880286305        1.98563654679356        0.85345765246418
H           -1.34679479780347       -3.18261682975596        0.91112604300479
H           -1.36201384759952       -3.20556152631943       -0.87789554175574
H           -2.78473801908165       -2.64451202226592        0.02108017151257
H            1.16695150362316       -2.80826258710832       -0.02590916644604
