  72
        -99.34810246
 N         -1.1198825390        2.5028929207        2.1303852862
 C         -1.3540363910        1.7987462882        1.1236395673
 C         -2.6419437265        1.8313806826        0.3468447503
 C         -3.3007593785        0.4621087352        0.3907997970
 C         -4.3740297423        0.1809527274       -0.4568331915
 C         -5.0296966564       -1.0379404577       -0.4166427009
 O         -6.0754570670       -1.3865519129       -1.1952989312
 C         -6.6145757013       -0.4415286644       -2.0888578092
 C         -4.6037606662       -2.0314762735        0.5054849720
 O         -5.3024696276       -3.1848916772        0.4793645143
 C         -5.0092963239       -4.1844337847        1.4270313710
 C         -3.5376619062       -1.7473536899        1.3436418583
 C         -2.8971558797       -0.5157606714        1.2872062461
 C         -2.2563620384        2.1990038964       -1.1110448066
 C         -1.5810192245        1.0717664356       -1.9154497517
 C         -0.1562676386        0.8705850192       -1.5446035078
 N          0.4327970313       -0.2959598326       -1.2891138161
 C          1.7344630019       -0.4372889842       -1.0158288440
 C          2.6673514534        0.7191053689       -1.0137751554
 C          4.1063109655        0.4492517324       -0.6653624216
 C          4.9986111292        1.4761482321       -0.6695506463
 C          6.3530378810        1.3117284609       -0.3437261518
 C          6.8499644415        0.0658892305        0.0431229702
 O          8.1273967954       -0.1830993515        0.4111949515
 C          9.0651717544        0.8701714343        0.3806040420
 C          5.9857319621       -1.0322622003        0.0886111849
 O          6.5104165099       -2.1931027590        0.5061041437
 C          5.7116386127       -3.3480692224        0.5878512776
 C          4.5511376055       -0.9338706948       -0.3157325436
 C         -0.3870344976       -1.4974602800       -1.2691389177
 C         -3.6669923656        2.8686016953        0.8955283265
 C         -4.1089799945        2.5215698008        2.3153740933
 C         -3.1536934087        4.3053235867        0.8527218621
 H         -4.7106881514        0.9345510107       -1.1489859982
 H         -6.9759433414        0.4476281983       -1.5632604676
 H         -7.4537033400       -0.9405362358       -2.5695165315
 H         -5.8861768676       -0.1463039155       -2.8511716920
 H         -5.1253601002       -3.8134163528        2.4497188279
 H         -5.7316592884       -4.9782194635        1.2471220121
 H         -3.9970382677       -4.5797600550        1.2941969543
 H         -3.2019286826       -2.4765444337        2.0631125253
 H         -2.0938618550       -0.3191164675        1.9807586225
 H         -3.1609247021        2.4973750022       -1.6403434814
 H         -1.5909101135        3.0626787243       -1.0887040925
 H         -2.1676358909        0.1607687059       -1.8220097769
 H         -1.6141152208        1.3797522841       -2.9685624977
 H         -0.6143094402        1.1151603432        0.6759074656
 H          0.4699174166        1.7448819234       -1.5785153740
 H          2.0815467756       -1.4349203535       -0.8373474571
 H          3.9175661176       -1.3447644552        0.4758496608
 H          2.2985917502        1.4835963420       -0.3127870819
 H          2.6440135563        1.2001958036       -2.0039697079
 H          4.6637166046        2.4702884629       -0.9283039382
 H          7.0018562336        2.1694055442       -0.3805260939
 H          8.7938616617        1.6702533723        1.0756553988
 H          9.1753636633        1.2800149953       -0.6277245183
 H         10.0082268620        0.4264182777        0.6937209946
 H          6.3742674134       -4.1385160173        0.9350494857
 H          4.8954791326       -3.2243544612        1.3070278676
 H          5.2977895277       -3.6254154258       -0.3863068233
 H          4.3959875977       -1.5870635738       -1.1943708162
 H         -0.8200374168       -1.6738620236       -2.2533028277
 H         -1.1923062594       -1.3944779901       -0.5390051715
 H          0.2200921063       -2.3577240642       -0.9991819222
 H         -4.5477175968        2.8040218049        0.2459293472
 H         -3.2669549951        2.5962252771        2.9960854940
 H         -4.5174719945        1.5150693907        2.3655940417
 H         -4.8775915957        3.2187190221        2.6384968405
 H         -2.2489362213        4.3987142946        1.4451136514
 H         -2.9545950269        4.6351630107       -0.1633542145
 H         -3.9070508527        4.9651553424        1.2751742388
 H         -0.2028504026        2.4205569909        2.5589461324
