  25
        -42.24791654
 C          3.2186090829        1.1355481897        0.0170399552
 N          2.2731488738        0.0509591822       -0.0004677444
 C          2.5422594113       -1.2461329148       -0.0073310751
 N          1.3892704603       -1.9544711298       -0.0065422334
 C          0.3522766496       -1.0687387436        0.0007646271
 C          0.9085825852        0.2001109707        0.0051402644
 C          0.0816233500        1.3952331555       -0.0032217330
 O          0.4881866642        2.5320146310       -0.0169533919
 N         -1.2709609469        1.0673815350        0.0019211705
 C         -2.2275052120        2.1674348671       -0.0000343716
 C         -1.8472615377       -0.1907167194        0.0042301030
 O         -3.0336723521       -0.3553354299        0.0069864404
 N         -0.9691105918       -1.2987014854        0.0014739777
 C         -1.5282031240       -2.6363801307       -0.0026408948
 H          3.7156921055        1.1885674148        0.9866648793
 H          3.9725525368        0.9950642325       -0.7562426201
 H          2.6815562488        2.0680797999       -0.1537680061
 H          3.5206289439       -1.6855889123       -0.0093463205
 H         -1.6712875704        3.1011644858        0.0076770539
 H         -2.8554726194        2.1077268371       -0.8883105005
 H         -2.8672337955        2.0989118629        0.8790959678
 H         -1.2166307460       -3.1844638874        0.8866500797
 H         -1.2287641916       -3.1741820826       -0.9024151382
 H         -2.6128975943       -2.5341500636        0.0051077282
 H          1.3231007336       -2.9626980551       -0.0128637110
