  72
        -99.25247294
 N         -1.6645360591        2.6801376406        2.4462087187
 C         -1.7141119054        2.0072909151        1.3968410646
 C         -2.8995245329        1.9504536501        0.4725193134
 C         -3.4502594565        0.5322594098        0.4467394351
 C         -4.4135329949        0.1796119850       -0.5000888914
 C         -4.9580220344       -1.0939894623       -0.5395746250
 O         -5.8913681822       -1.5144482413       -1.4146807651
 C         -6.4453595416       -0.5997588470       -2.3313065607
 C         -4.5241282847       -2.0704544609        0.4006225678
 O         -5.1040771267       -3.2781671311        0.2896122641
 C         -4.7794928229       -4.2862415535        1.2198763521
 C         -3.5675104916       -1.7111329079        1.3387380041
 C         -3.0414589247       -0.4274896851        1.3618138390
 C         -2.3675820997        2.3350076087       -0.9330894154
 C         -1.4811574064        1.2626676321       -1.5848666378
 C         -0.1219297669        1.1939343628       -1.0029356226
 N          0.5929564988        0.1086356916       -0.8119618859
 C          1.9800157421        0.2081820092       -0.4292136153
 C          2.9175800292        0.0584317532       -1.6387184907
 C          4.3372510877        0.0213974764       -1.1550098368
 C          5.2232751521        1.0879505103       -1.3362097307
 C          6.5113364653        1.0341380189       -0.8313484150
 C          6.9718953253       -0.0736368319       -0.1273152657
 O          8.1938956586       -0.2228178310        0.4054409179
 C          9.1374320746        0.8178328275        0.2677649914
 C          6.0787755391       -1.1802298414        0.0605556512
 O          6.5257765819       -2.2445990652        0.7362431878
 C          5.6231357174       -3.3269187030        0.8330324341
 C          4.8198121630       -1.0541302161       -0.4613566265
 C          0.0794596484       -1.2265640629       -0.9774720444
 C         -4.0499189202        2.9155325775        0.8862321239
 C         -4.6498600536        2.5205918549        2.2333580955
 C         -3.6248198806        4.3808733537        0.9200217287
 H         -4.7540223516        0.9155812081       -1.2094070057
 H         -6.9200025156        0.2428868262       -1.8197858011
 H         -7.2003464468       -1.1586219424       -2.8806607455
 H         -5.6920259334       -0.2269511450       -3.0329641114
 H         -5.0317151691       -3.9835514092        2.2403602636
 H         -5.3823351147       -5.1474873542        0.9389673096
 H         -3.7195388852       -4.5530424935        1.1686990532
 H         -3.2286968990       -2.4250085889        2.0713403731
 H         -2.3197594692       -0.1811998280        2.1246655815
 H         -3.2181705875        2.5204083460       -1.5879966383
 H         -1.8050816085        3.2659535849       -0.8550324916
 H         -1.9874977201        0.2983216568       -1.5616824930
 H         -1.3592803174        1.5403376752       -2.6400767573
 H         -0.8662505133        1.4101302036        1.0108089449
 H          0.3865643398        2.1365510649       -0.8487595289
 H          2.1998241923       -0.6127877120        0.2817285246
 H          2.1644891688        1.1674780038        0.0586065162
 H          2.7702596072        0.8895285664       -2.3307895066
 H          2.6895653745       -0.8765031866       -2.1529646210
 H          4.8959454897        1.9622925664       -1.8788153461
 H          7.1640088979        1.8773721975       -0.9927597917
 H          8.7888754017        1.7362484250        0.7495871548
 H          9.3602627432        1.0177377539       -0.7843888445
 H         10.0371299923        0.4651221100        0.7681127377
 H          6.0526831735       -4.0261349630        1.5463279828
 H          4.6404909656       -2.9855726130        1.1751945126
 H          5.5044283778       -3.8149683540       -0.1395071402
 H          2.0701073658       -2.2458125245        0.9692951287
 H          0.2089336639       -1.5749959408       -2.0037833482
 H         -0.9765421113       -1.2744364859       -0.7168935623
 H          0.6412061550       -1.8948608911       -0.3109468444
 H         -4.8321463473        2.8079475971        0.1258427518
 H         -3.9107354930        2.6385365809        3.0195487723
 H         -4.9941721787        1.4892282904        2.2237429779
 H         -5.4978026708        3.1623828185        2.4572357713
 H         -2.8153761280        4.5226929136        1.6295507002
 H         -3.3132986094        4.7374348686       -0.0582772117
 H         -4.4668339881        4.9882031723        1.2413750134
 H         -0.8057389918        2.6672101012        2.9867175124
