  72
        -99.25002379
 N         -1.6245824984        2.7290574566        2.4985806780
 C         -1.6292163184        2.1173222194        1.4118714896
 C         -2.8017468113        2.0576081705        0.4690910305
 C         -3.3606601064        0.6446894956        0.4349133195
 C         -4.3026430328        0.2918536168       -0.5338618854
 C         -4.8386321443       -0.9847662483       -0.5915076878
 O         -5.7470685461       -1.4097561604       -1.4913847638
 C         -6.2951647288       -0.4943641779       -2.4110846831
 C         -4.4209169461       -1.9629066706        0.3531800336
 O         -4.9812126344       -3.1794953381        0.2149413419
 C         -4.6880225823       -4.1819167738        1.1606453465
 C         -3.4948412268       -1.6013941212        1.3196769391
 C         -2.9735052115       -0.3144716483        1.3590684579
 C         -2.2410873330        2.4481110191       -0.9240261601
 C         -1.4379342171        1.3392949664       -1.6303617166
 C         -0.1349653512        1.0545417028       -0.9954667437
 N          0.3375406169       -0.1361582863       -0.7143429367
 C          1.6880848216       -0.2744919451       -0.2185764715
 C          2.6493948210       -0.7781180918       -1.3065351709
 C          4.0651028091       -0.5172817555       -0.8808084976
 C          4.5904661253        0.7439396159       -0.8498709396
 C          5.8541107281        1.0915231466       -0.4947794613
 C          6.7227942130        0.0648405265       -0.1058610538
 O          8.0029951253        0.2259753835        0.2544692801
 C          8.5858574068        1.5080720587        0.1956272437
 C          6.2293368006       -1.2719241353       -0.0792799920
 O          7.1254860774       -2.1920588370        0.3314224624
 C          6.7424992261       -3.5450232420        0.4121661655
 C          4.9220341010       -1.5415579309       -0.4604263588
 C         -0.4133887148       -1.3528728894       -0.9285109209
 C         -3.9538646438        3.0294660291        0.8672840702
 C         -4.6094698831        2.6099147169        2.1807578412
 C         -3.5063214087        4.4852417711        0.9564410519
 H         -4.6318087911        1.0307984960       -1.2456216317
 H         -6.7952921382        0.3346855948       -1.9020096980
 H         -7.0280551995       -1.0603717694       -2.9826420557
 H         -5.5331239922       -0.1015888466       -3.0920675065
 H         -4.9646487532       -3.8709753619        2.1720662277
 H         -5.2880930412       -5.0419348935        0.8703075925
 H         -3.6284818107       -4.4563437386        1.1390461834
 H         -3.1754151716       -2.3156120083        2.0609662882
 H         -2.2724869191       -0.0635050862        2.1396318373
 H         -3.0712927280        2.7244671281       -1.5735354398
 H         -1.6045542632        3.3261902935       -0.8095664924
 H         -2.0480644710        0.4422953476       -1.7277890988
 H         -1.2213173187        1.7118774313       -2.6393599907
 H         -0.7488597711        1.5874110249        1.0054258958
 H          0.5377123214        1.8895474609       -0.8102254764
 H          1.6931468596       -0.9548314150        0.6363708088
 H          2.0332003360        0.7216916430        0.1171075405
 H          2.4518954159       -0.2238384903       -2.2266899383
 H          2.4985685255       -1.8412218843       -1.4988394735
 H          2.0375220852        2.4722308547        0.3296293363
 H          6.1817841455        2.1179052549       -0.5077416926
 H          8.0956237178        2.2025011814        0.8844495691
 H          8.5544992777        1.9133017777       -0.8202558602
 H          9.6225539938        1.3724182793        0.4986472964
 H          7.6217809650       -4.0746091017        0.7737631758
 H          5.9189844302       -3.6864246954        1.1190831743
 H          6.4590185202       -3.9416720386       -0.5675305258
 H          4.5505137146       -2.5545976471       -0.4558091933
 H         -0.5548507748       -1.5417627933       -1.9943234998
 H         -1.3911866738       -1.2915237528       -0.4465307732
 H          0.1331823412       -2.1882202666       -0.4986590882
 H         -4.7089860401        2.9546355010        0.0759990380
 H         -3.8849629077        2.6500346414        2.9879506798
 H         -5.0128172609        1.6021006501        2.1166345296
 H         -5.4241293183        3.2901546440        2.4142834875
 H         -2.7609289058        4.6028824629        1.7372091213
 H         -3.0976063911        4.8441397573        0.0158562299
 H         -4.3617130947        5.1070040461        1.2075857998
 H         -0.7657581764        2.7415004551        3.0387388379
