25
 energy: 0.000000000000 xtb: 6.6.1 (8d0f1dd)
C            3.23720163006194        1.16630919979326        0.08434469647475
N            2.29877817382611        0.07527477071623        0.03981603040599
C            2.58028210190900       -1.21425402444508        0.03006176031096
N            1.43813958087363       -1.93419271955128        0.00098261760884
C            0.39035688448383       -1.05887472636071       -0.00790371836672
C            0.93510056364412        0.21347819449412        0.01709077491437
C            0.09450143893243        1.40504303904423       -0.00410947031874
O            0.49712751527797        2.54126714362870       -0.00342325688240
N           -1.25076640035757        1.06271879480407       -0.03085478223738
C           -2.21907211982101        2.15522099834493       -0.05001256985998
C           -1.81739487048744       -0.20012725993278       -0.04692818574614
O           -2.99983886758376       -0.37846417018721       -0.07008878229737
N           -0.92618586207120       -1.30210215599479       -0.03682761578324
C           -1.46982264913417       -2.64643102187190       -0.06029820460571
H            3.71247264356769        1.21471455160235        1.06488849150277
H            4.00791497605742        1.03430808813993       -0.67357694370751
H            2.69910007168542        2.09770118228144       -0.09130154882931
H            3.56654120610678       -1.63682992603973        0.04233140067262
H           -1.67107961066214        3.09322851271934       -0.02552706933167
H           -2.82428953597071        2.09428624779827       -0.95318082946668
H           -2.87644029173232        2.07745725625962        0.81450067533302
H           -1.17061996399332       -3.19584890659852        0.83242232437030
H           -1.14560257411436       -3.17511610292205       -0.95688275822323
H           -2.55549792440841       -2.55659984320617       -0.07459039797972
H            1.38130855184625       -2.94313852034425       -0.01389874181052
25
 energy: -3.178931547278 xtb: 6.6.1 (8d0f1dd)
C            3.22729898629080        1.17916536298167        0.07385536849105
N            2.29877156257485        0.09148948586591        0.03254742005374
C            2.59685625302250       -1.23412531768118        0.03169200096900
N            1.42902191771266       -1.94815945371675        0.00658909417058
C            0.39294968545624       -1.06879171652629       -0.00715837773205
C            0.92168818530278        0.21157823432481        0.01202003412700
C            0.09504409593186        1.38439934301145       -0.00603612274390
O            0.49078693763060        2.54976193575169       -0.00914942987399
N           -1.26544230842913        1.04819023904270       -0.03268296875485
C           -2.18562274043465        2.18878841178467       -0.03299460736077
C           -1.82844121289414       -0.21186151350962       -0.05715627065782
O           -3.02402859968090       -0.40221554731940       -0.07929033759487
N           -0.93695951108012       -1.31622165062829       -0.03726044804122
C           -1.46146085272171       -2.66659965431935       -0.05229169045102
H            3.70262134915904        1.23554585195549        1.05643364834903
H            3.99695505441513        1.04235883383963       -0.68685810079314
H            2.67524150835552        2.09915351118039       -0.11032360938882
H            3.57750938038653       -1.65317148949200        0.04570217572726
H           -1.65721810114995        3.16980557626795        0.05397661696741
H           -2.73889573179756        2.20982514683441       -0.94545166233076
H           -2.93772882970963        2.04001662190041        0.74332044259048
H           -1.15629913582888       -3.21079560686696        0.84427480500799
H           -1.12240369656571       -3.20331032935802       -0.94124368382973
H           -2.54766916003443       -2.59337704113518       -0.07248335144291
H            1.36963963202452       -2.95242063201616       -0.00299704931040
25
 energy: 2.202311282226 xtb: 6.6.1 (8d0f1dd)
C            3.20776721121127        1.19093325887997        0.05387715217886
N            2.29211619778031        0.10327378826183        0.01885283263025
C            2.60887776971108       -1.25524018187902        0.03491067684142
N            1.41600196103816       -1.96118308819902        0.01576887469524
C            0.39311476383703       -1.08366333850282       -0.00438953323162
C            0.90213978596932        0.20471932337136        0.00325107174912
C            0.09464080146617        1.35178843558286       -0.01249736856077
O            0.47356408666312        2.53940654674422       -0.02446349901176
N           -1.28850625383800        1.03460443972335       -0.03095646848632
C           -2.14546068988576        2.23535767457753       -0.00521978421155
C           -1.84114714004297       -0.22426283356989       -0.06267604118975
O           -3.04275115593906       -0.43597333253926       -0.09153831658193
N           -0.95100719229861       -1.33217663351999       -0.03519656136451
C           -1.44612996513880       -2.69421936259393       -0.03880815720205
H            3.68371379876077        1.26762586943482        1.03733325476278
H            3.97922367873264        1.05473291910959       -0.70727723209940
H            2.63937082728593        2.09860144693284       -0.14239758243236
H            3.58474934151379       -1.66617246214561        0.05104227490267
H           -1.62971590827311        3.25746410725354        0.21341557301451
H           -2.58667440240373        2.41737104014242       -0.96893692496916
H           -3.04079482985166        1.97454992859223        0.62756902582666
H           -1.13343866698168       -3.22900449192660        0.86442237283504
H           -1.08451974019574       -3.24351929397000       -0.91519452158372
H           -2.53366904423018       -2.65310059250120       -0.06882480706981
H            1.36074943304592       -2.96288456508730        0.01496758470548
25
 energy: 11.000139795961 xtb: 6.6.1 (8d0f1dd)
C            3.18481601726361        1.19816695204540        0.03446694005429
N            2.28195222325452        0.10332792103710        0.00665429252878
C            2.61039337236489       -1.27039210554256        0.03782079328161
N            1.40779247007922       -1.97232021837603        0.02365020991223
C            0.38975817046277       -1.10026945911642       -0.00152858331943
C            0.88625082320345        0.19341045605382       -0.00521812184471
C            0.08819912044799        1.32921253096317       -0.02299797666910
O            0.45399207764340        2.52508172420200       -0.04357709312493
N           -1.31256301469012        1.02952542915646       -0.02338134477259
C           -2.12170762760908        2.27169853611663        0.02352986543901
C           -1.85390375904581       -0.23454804920815       -0.05961688904377
O           -3.05415396960545       -0.46883774517077       -0.09889423025263
N           -0.96140476894633       -1.34566719797780       -0.03216839084913
C           -1.42965102498128       -2.71960787699712       -0.02783894283166
H            3.65920197883617        1.29706447152511        1.01809677853281
H            3.95997769947320        1.06690582448163       -0.72442703589709
H            2.60350404113570        2.09660588035351       -0.17305547677661
H            3.58705590211806       -1.67302375438432        0.05567304545638
H           -1.61310744291468        3.31212834181938        0.36623093090102
H           -2.42097179630988        2.61941317720104       -0.98246060491753
H           -3.12037857208793        1.93833020471683        0.50408596189438
H           -1.11157334481355       -3.24330443046724        0.88230327963574
H           -1.04486548621908       -3.27621464039078       -0.89256294745804
H           -2.51802038475509       -2.71298178383713       -0.06933396257712
H            1.36162196363152       -2.97467558603190        0.03158339884534
25
 energy: 15.943950315624 xtb: 6.6.1 (8d0f1dd)
C            3.16289579604143        1.20039061207204        0.02283522604042
N            2.27129096629836        0.09429496829800       -0.00031566912271
C            2.60358255722770       -1.27829056539974        0.04027048018837
N            1.40406316458543       -1.97998739234177        0.02825047706661
C            0.38372495945882       -1.11443214689766        0.00010074377900
C            0.87624840176881        0.18086552038141       -0.01167289139476
C            0.07948266412702        1.31854561560018       -0.03606229761901
O            0.43742076748515        2.51010268464738       -0.06420077538978
N           -1.33142580692243        1.03372967530360       -0.01161000488072
C           -2.11158429156479        2.29719735444948        0.04359418950046
C           -1.86461850336096       -0.23964477696045       -0.04896777832043
O           -3.05795688505164       -0.49307310557559       -0.10098840841344
N           -0.96788833784270       -1.35408016019574       -0.03023079310171
C           -1.41565882574791       -2.73829835880055       -0.02498683408249
H            3.63260170984334        1.31774152359846        1.00671505253919
H            3.94300976038270        1.07671289486917       -0.73171951654028
H            2.57244570316019        2.09242618815434       -0.19319135284380
H            3.58443706434658       -1.67429875885476        0.05964095343784
H           -1.61999833425764        3.34368760476691        0.45149281291961
H           -2.28947317932595        2.73826284056667       -0.94321244092582
H           -3.13969779291901        1.95336127685927        0.39803842386664
H           -1.09619032270456       -3.25340422693353        0.89036171067429
H           -1.00958783918137       -3.29520955776006       -0.88089740271919
H           -2.50348442461220       -2.76278665769226       -0.07875545146201
H            1.36857569670187       -2.98478444998300        0.04254544295096
25
 energy: 16.780548652415 xtb: 6.6.1 (8d0f1dd)
C            3.14890429539086        1.19801239424138        0.01356776005347
N            2.26403999660262        0.08113850633915       -0.00521709302861
C            2.59126594009305       -1.27435321526922        0.03773121690433
N            1.40660981359977       -1.98151051561372        0.02983371451504
C            0.37641240656466       -1.12191634741529        0.00173093702607
C            0.87416690392956        0.17180723937406       -0.01300219495462
C            0.06955555961809        1.32070640045457       -0.03850509348794
O            0.42440323505221        2.50121849112907       -0.08152613062807
N           -1.34054580864721        1.04096703632523        0.00883276832998
C           -2.12220066277128        2.29947512971487        0.05470752881636
C           -1.87295337096127       -0.24094862059231       -0.03691925724506
O           -3.05710467921589       -0.50509147984458       -0.09462511145717
N           -0.96909817311699       -1.35642194432071       -0.02659080777886
C           -1.40997386762401       -2.74485652351553       -0.02262258189833
H            3.61318478420880        1.32353654588283        0.99696559704286
H            3.93166828830200        1.07860132338076       -0.73745488280116
H            2.55550904975341        2.08687538135511       -0.20658164784128
H            3.57773502093947       -1.66687131813188        0.05531045528539
H           -1.65509626021321        3.33729804344187        0.52468959025983
H           -2.14854923850143        2.79106620553245       -0.89777186710264
H           -3.14827904629854        1.97264630559250        0.28073309110134
H           -1.09296259742343       -3.25386544983720        0.89605054281831
H           -0.99157962686104       -3.29443953528580       -0.87478076906356
H           -2.49416112665818       -2.78530106822995       -0.08486232236912
H            1.38126383217419       -2.98874438253586        0.04734045365071
25
 energy: 19.017276427546 xtb: 6.6.1 (8d0f1dd)
C            3.14417425411477        1.19635218956669        0.00020260485335
N            2.26100021458700        0.07573268769184       -0.01370746948438
C            2.58306410176615       -1.26426219282219        0.02867279011642
N            1.41053984892111       -1.97938654587875        0.02826505337987
C            0.37132763571964       -1.12303904054565        0.00653012273517
C            0.87389799461046        0.16964909757922       -0.00931219032700
C            0.06149806416606        1.32238131871601       -0.02338199066759
O            0.41359204342098        2.50015842025379       -0.09120188019555
N           -1.34173238906552        1.03773810539042        0.04744685857868
C           -2.13310313785295        2.28849186205156        0.06360372424493
C           -1.87957240160719       -0.24448505610166       -0.01568104283811
O           -3.05959681454887       -0.51077784216161       -0.07700165665347
N           -0.96864863787877       -1.35774654412775       -0.01600201686291
C           -1.41167179492835       -2.74513731546186       -0.01540374833218
H            3.60679669408018        1.32107473577080        0.98272501845936
H            3.92565123713950        1.07432887395121       -0.75074354525895
H            2.55084587048791        2.08352730536488       -0.22112526013748
H            3.57206949521507       -1.65578783514225        0.03974714597095
H           -1.70413118088527        3.31368359692237        0.62909654521342
H           -1.95854957750448        2.84526895176230       -0.89119899535009
H           -3.21784043317145        1.95339557681980        0.12439952624938
H           -1.09594738867588       -3.25182681030492        0.90389100477630
H           -0.98979688131703       -3.28663787888641       -0.86824826548982
H           -2.49301978907332       -2.78678410761642       -0.07982766636231
H            1.39136764021655       -2.98688295061962        0.04528922952926
25
 energy: 16.095461204999 xtb: 6.6.1 (8d0f1dd)
C            3.14760494142187        1.19529634953798        0.00145877881595
N            2.26084722608402        0.07623352916717       -0.01447993626249
C            2.57843726119429       -1.25247118595274        0.02538177682542
N            1.41281110328269       -1.97409067402506        0.02582166311574
C            0.36864076961177       -1.11695158369040        0.00889755909644
C            0.87552594352672        0.17394566867974       -0.00567233012748
C            0.05807928043945        1.32536309938103       -0.01495264863309
O            0.41244946687686        2.50231577214090       -0.09236820124208
N           -1.33412869243118        1.03209896311585        0.06586198761850
C           -2.13727102050977        2.27756251433233        0.05042685851743
C           -1.88074293198914       -0.24495308902841       -0.00349414614024
O           -3.06087383459540       -0.50227838390708       -0.06717882696529
N           -0.96713596766133       -1.35584707891547       -0.01108324427022
C           -1.41744018479513       -2.74041872015507       -0.01760678938431
H            3.60967663908036        1.31352851668334        0.98467689961400
H            3.92860080776185        1.06973569224739       -0.74912275747339
H            2.55728129206595        2.08399462410657       -0.21842494540809
H            3.56700896469883       -1.64784046109033        0.03284575665042
H           -1.74590447559336        3.28622989065149        0.62006061139336
H           -1.92398473804753        2.80618371009914       -0.85229849653713
H           -3.18815669464847        1.96413033613083        0.07610347209979
H           -1.10350638245817       -3.25089531276608        0.89928026942074
H           -0.99803596965587       -3.27773376229408       -0.87362983973767
H           -2.49934428396416       -2.77319165683613       -0.08169621894040
H            1.39177614824107       -2.98091815544119        0.03822664410132
25
 energy: 15.512084579279 xtb: 6.6.1 (8d0f1dd)
C            3.14899609094854        1.19778958272530       -0.00090463918336
N            2.26011868729973        0.08134063561914       -0.01797871087603
C            2.58012484607477       -1.25000849582391        0.02218822309187
N            1.41231588352336       -1.97331078150846        0.02450804268199
C            0.36894373624979       -1.11477756474784        0.01146833632423
C            0.87312082539273        0.17709943722655       -0.00366091329641
C            0.05320095725028        1.32295962255071       -0.00826133522721
O            0.40710951489942        2.50352295820355       -0.08959324855161
N           -1.33591005239452        1.02497279417056        0.08419735930766
C           -2.13823989016531        2.27549434664368        0.04460678949306
C           -1.88247697668197       -0.24831687097479        0.00518680733322
O           -3.06480551389773       -0.50334113032355       -0.05794263635409
N           -0.96773711187822       -1.35764037433096       -0.00572667267182
C           -1.41935479543089       -2.74135874065395       -0.01557101117576
H            3.61339250053677        1.31327036208350        0.98241198223928
H            3.92935117641394        1.06974600686565       -0.75224016731274
H            2.55979498612436        2.08751959157157       -0.21969265761093
H            3.56727192097682       -1.64760523594653        0.02548378451540
H           -1.78350343058871        3.27471823701020        0.63998023064560
H           -1.86116709292020        2.81835711393898       -0.84394913727081
H           -3.18500008443115        1.96055342387664        0.02185988823709
H           -1.10559329883032       -3.25610332229844        0.89922982378938
H           -1.00360606777601       -3.27881338643677       -0.87403550209791
H           -2.50271450819239       -2.76766782410060       -0.07820422287309
H            1.38858236543317       -2.97937178316852        0.03367348299022
25
 energy: 14.935148071433 xtb: 6.6.1 (8d0f1dd)
C            3.15297269140002        1.20043689847582       -0.00305331353966
N            2.26067363508593        0.08867113288109       -0.02209515817499
C            2.58570084121467       -1.25216806712016        0.01846552682986
N            1.41044824843258       -1.97368642805688        0.02245758613966
C            0.37208834646750       -1.11169466042392        0.01315352143771
C            0.87144248602530        0.18117311707880       -0.00145519229291
C            0.05106775769163        1.32112659705351        0.00076409294002
O            0.40756356657828        2.50518163767204       -0.07465499379953
N           -1.33696146723549        1.02065521448069        0.10480306740526
C           -2.13578832370353        2.27970617056755        0.03517289401206
C           -1.88010219625141       -0.24883678770448        0.01050664452296
O           -3.06638781703030       -0.50008930312220       -0.04942703231686
N           -0.96779233920630       -1.35814300859976       -0.00072975308405
C           -1.42127595501102       -2.74047256847146       -0.01255081493166
H            3.62211644004820        1.31262531949456        0.97983402595274
H            3.93162470416838        1.07088796312861       -0.75672804069585
H            2.56539241398259        2.09251101574828       -0.21872975343378
H            3.56990728928499       -1.65328844805693        0.01605493203218
H           -1.83586716502070        3.26661828716307        0.65318032662158
H           -1.80600321893332        2.81499079061375       -0.82932522590805
H           -3.19112522738260        1.95153073314676       -0.04024731473386
H           -1.10626737433232       -3.26171549173785        0.89886331564683
H           -1.01429484199207       -3.28076453850565       -0.87493902170910
H           -2.50714889996584       -2.75729157924456       -0.06996708443970
H            1.38023107362113       -2.97893539428890        0.02768066166635
25
 energy: 13.768109454199 xtb: 6.6.1 (8d0f1dd)
C            3.15395303546436        1.20100992704539       -0.00264812616210
N            2.26042178616385        0.09060146607897       -0.02198914960392
C            2.58745192944299       -1.25349120697670        0.01836586999375
N            1.41002394845955       -1.97361774952325        0.02202608344700
C            0.37314335924605       -1.11141261170724        0.01244363508451
C            0.87090702802807        0.18156414535703       -0.00120236032053
C            0.04914852907008        1.32145211850174        0.00256569636059
O            0.40680704762751        2.50578056475149       -0.06593169884876
N           -1.33982985583057        1.02016230306528        0.10386468892187
C           -2.13991640568064        2.27875668912170        0.03113722285454
C           -1.87936833464715       -0.24999325133600        0.00767271852717
O           -3.06649129389001       -0.50087279363044       -0.05214972046778
N           -0.96767665447057       -1.35852149840927       -0.00098363543745
C           -1.42146420996767       -2.74007287799254       -0.01142510498170
H            3.62474788616214        1.31215395581406        0.97965185218396
H            3.93161974504945        1.07191835098463       -0.75758945208338
H            2.56740518959451        2.09420928255648       -0.21665939458084
H            3.57118139578190       -1.65458017566176        0.01464084075445
H           -1.84556249982882        3.25584687254822        0.64882639160085
H           -1.80439819183515        2.81984554474936       -0.83501752734926
H           -3.17781216372985        1.95464387009996       -0.03448948075814
H           -1.10455293032727       -3.26148891954010        0.89929850523687
H           -1.01804876760445       -3.28116340583407       -0.87516504317073
H           -2.50767308926994       -2.75482588964617       -0.06538380273644
H            1.37819818492791       -2.97887610824503        0.02717488768271
25
 energy: 13.669422490439 xtb: 6.6.1 (8d0f1dd)
C            3.15365062241944        1.19995695219269       -0.00311888272736
N            2.26030157648445        0.08902501799676       -0.02161262188799
C            2.58657325377457       -1.25369063164605        0.01833145274171
N            1.41023154579848       -1.97346483478406        0.02173410094034
C            0.37279416936810       -1.11191164748384        0.01234056638750
C            0.87166634818427        0.18054139445721       -0.00086843573626
C            0.05018807095981        1.32248482924598        0.00364702275860
O            0.40810526182074        2.50554451309077       -0.06463441492956
N           -1.33925163437183        1.02225437901488        0.10232772237330
C           -2.13964425311569        2.27927625186710        0.03107535604933
C           -1.87882737620885       -0.24917440537135        0.00784364314611
O           -3.06519243293107       -0.50026959603214       -0.05413441878868
N           -0.96754562414574       -1.35778609487627       -0.00098221960449
C           -1.42131777477736       -2.73932889502684       -0.01108638391301
H            3.62434845666542        1.31143914267792        0.97879561852434
H            3.93087247045358        1.07149307926134       -0.75843925618724
H            2.56711387948814        2.09318271296479       -0.21682663329993
H            3.57086748632024       -1.65381542820982        0.01432071061339
H           -1.84351733351258        3.25482705921609        0.65179503758548
H           -1.80650304577503        2.81890985483700       -0.83528280542949
H           -3.18387974704227        1.95392692097455       -0.03631819802378
H           -1.10349524260385       -3.25959600672505        0.89974288879918
H           -1.01752173148964       -3.27974635087647       -0.87475902425014
H           -2.50712002135053       -2.75606201835830       -0.06447014162411
H            1.37931774352346       -2.97898759623516        0.02761321262999
25
 energy: 13.357586106083 xtb: 6.6.1 (8d0f1dd)
C            3.15340271870391        1.19937041490985       -0.00331253226345
N            2.25995119608788        0.08841637012454       -0.02104355608355
C            2.58622097499179       -1.25419353263675        0.01878417102154
N            1.41010059591241       -1.97336940788497        0.02149371302280
C            0.37255760606254       -1.11229095035685        0.01223796821351
C            0.87190017630838        0.17984907906072       -0.00071917146792
C            0.05093027676514        1.32294746308021        0.00409823278286
O            0.40913988914330        2.50534387810429       -0.06266368671471
N           -1.33933249818087        1.02358094547947        0.09940306887909
C           -2.13882139817814        2.28022846457933        0.02991502226167
C           -1.87840203107051       -0.24892418216291        0.00689057907498
O           -3.06451163359963       -0.49986132732934       -0.05640243694554
N           -0.96776663636828       -1.35724457537077       -0.00094339810714
C           -1.42111139418271       -2.73891997966924       -0.01051818681592
H            3.62444391074366        1.31107306474202        0.97822924291897
H            3.93005584263236        1.07125354033162       -0.75920834733765
H            2.56687122083577        2.09278747855330       -0.21661375855133
H            3.57096491775633       -1.65315023589574        0.01407965165603
H           -1.84327430818118        3.25080455235214        0.65405032713125
H           -1.80973489112627        2.82112787253245       -0.83565071503284
H           -3.18500812208088        1.95397186144014       -0.03594313827568
H           -1.10203817111012       -3.25839611062733        0.90021887169933
H           -1.01736430436488       -3.27901849373183       -0.87441501967454
H           -2.50678012562478       -2.75726973660468       -0.06313799868590
H            1.37982085606107       -2.97908785084793        0.02820499344139
25
 energy: 12.895431083612 xtb: 6.6.1 (8d0f1dd)
C            3.15329569482034        1.19902194049089       -0.00355588873457
N            2.25968583663715        0.08817021008903       -0.02051105263447
C            2.58594670383765       -1.25453171784440        0.01955291782645
N            1.40989063151460       -1.97327805806974        0.02132081216748
C            0.37230847249294       -1.11244945250720        0.01218089260575
C            0.87198348856446        0.17955072980859       -0.00081542543172
C            0.05153031876006        1.32318512238761        0.00387174432858
O            0.40978553346260        2.50533782413427       -0.06158206519598
N           -1.33945505351740        1.02438098985603        0.09637041353105
C           -2.13813241575383        2.28070031007333        0.02878702646405
C           -1.87821769100656       -0.24889982114250        0.00577677771337
O           -3.06430617754528       -0.49945166373718       -0.05776409865802
N           -0.96811773337236       -1.35671396732451       -0.00080987438927
C           -1.42098799409201       -2.73862290631342       -0.00994190372902
H            3.62470873020307        1.31096609198890        0.97771801268845
H            3.92949562774957        1.07087963711022       -0.75988183653046
H            2.56674048584455        2.09256025599238       -0.21666581065249
H            3.57108054419659       -1.65245193672011        0.01377647223515
H           -1.84551481055770        3.24466049745973        0.65819330684239
H           -1.80985678601027        2.82491278269299       -0.83586046952428
H           -3.18497723706755        1.95447336711980       -0.03666948954737
H           -1.10102335858251       -3.25762149876672        0.90068840026444
H           -1.01727391490657       -3.27857369898294       -0.87401631188409
H           -2.50656206953546       -2.75807150603336       -0.06214705506660
H            1.38018784180019       -2.97910492958995        0.02901840145840
25
 energy: 12.639633029328 xtb: 6.6.1 (8d0f1dd)
C            3.15334047854785        1.19915361231152       -0.00347206224222
N            2.25986624731486        0.08823849533468       -0.02009475735900
C            2.58586825799712       -1.25454533771948        0.02068920699171
N            1.40974315449803       -1.97333245788320        0.02151375557238
C            0.37220828038996       -1.11235645333427        0.01210524461601
C            0.87195806710756        0.17978813767283       -0.00127820314046
C            0.05192301066491        1.32295293852536        0.00234122033534
O            0.40976969107639        2.50547992949615       -0.06331501144933
N           -1.33925859319769        1.02417276856053        0.09398794753067
C           -2.13723510842783        2.28070685068889        0.02866371586696
C           -1.87844454777301       -0.24900451167337        0.00514739113542
O           -3.06473039220874       -0.49926883876077       -0.05729826683070
N           -0.96836373550480       -1.35652126137066       -0.00099990258820
C           -1.42095357546088       -2.73868091794050       -0.01013144016185
H            3.62465824600735        1.31148559690564        0.97790233551136
H            3.92971236541986        1.07070077326872       -0.75957762446433
H            2.56656401596668        2.09248272114286       -0.21698807609465
H            3.57108396375769       -1.65229158831482        0.01407309252772
H           -1.84598867152084        3.24095469531677        0.66011214101542
H           -1.81158554409958        2.82733755156342       -0.83517601386368
H           -3.18368365202457        1.95528681134303       -0.03488293452982
H           -1.10138658833227       -3.25765856547087        0.90066704220788
H           -1.01668138436094       -3.27877342558195       -0.87391419018137
H           -2.50649675141661       -2.75818457233933       -0.06300843744636
H            1.38032743351581       -2.97909434956945        0.02996772318833
