  25
        -42.13381376
 C          2.8640686381        1.3278778821        0.5572165140
 N          2.1846150158        0.1370156822        0.1275427211
 C          2.7627970646       -0.9711883970       -0.2633403576
 N          1.8623087332       -1.8968600764       -0.5670715257
 C          0.5556292318       -1.4302084714       -0.3126290929
 C          0.7796007627       -0.0299937140        0.0709556534
 C          0.0028356954        1.0946778413        0.2143770305
 O          0.1939416132        2.2233142793        0.5449359945
 N         -1.5554011441        0.8331295048       -0.2921864194
 C         -1.6916972740        0.9170961252       -1.7366720317
 C         -2.4175382295        0.9399151469        0.5807092137
 O         -3.1069153093        1.0075528517        1.4863512894
 N         -0.3708897237       -2.2811440106       -0.4090949207
 C         -1.7417091638       -2.1782326156       -0.0409707106
 H          2.5769009340        1.5743051302        1.5801668736
 H          3.9387995068        1.1638540302        0.5130814500
 H          2.6000779561        2.1740899917       -0.0764158529
 H          3.8272009012       -1.1094190048       -0.3243574794
 H         -1.0145937442        0.1904283633       -2.1854325884
 H         -2.7184104425        0.7016412386       -2.0348167625
 H         -1.4198705469        1.9219531505       -2.0682500446
 H         -2.0920038638       -3.1976170595        0.1224348379
 H         -2.3408049012       -1.7507376774       -0.8478036081
 H         -1.8959545947       -1.5942212330        0.8716556996
 H          2.0338741126       -2.8484539220       -0.8543095011
