  72
        -99.37676427
 N         -1.5470258115        2.8646570177        2.5473827207
 C         -1.4922666133        2.2891390443        1.4396748344
 C         -2.6659762609        2.1031309744        0.5168809188
 C         -3.0954155350        0.6439266934        0.5156166405
 C         -3.9867528601        0.1872034718       -0.4576789747
 C         -4.4125036251       -1.1297978146       -0.4889085671
 O         -5.2643051086       -1.6517417234       -1.3960336074
 C         -5.8413579928       -0.8082404060       -2.3646493038
 C         -3.9362622001       -2.0423908358        0.4906175060
 O         -4.3967586616       -3.3048896259        0.3780969996
 C         -4.0315412604       -4.2563854128        1.3497931563
 C         -3.0616939279       -1.5804045510        1.4606455057
 C         -2.6460096992       -0.2540784701        1.4710774983
 C         -2.1696372053        2.5135694536       -0.8939333579
 C         -1.2390391996        1.4891140060       -1.5719425125
 C          0.1487243112        1.4972595616       -1.0570284480
 N          0.8477553781        0.4359478276       -0.6854608121
 C          2.2789894627        0.5102217734       -0.5092606497
 C          3.0117971450       -0.3689848271       -1.5448702442
 C          4.4540930553       -0.0045589704       -1.6431366507
 C          4.9818681199        0.7699336570       -2.6437090607
 C          6.3796081575        0.9055697229       -2.4435030391
 C          6.7351343287        0.2055689306       -1.3236268430
 O          4.1897074237       -1.5189032637        0.7744169904
 C          4.0730277817       -2.3482765562        1.9231892987
 C          5.4218942869       -1.1864019423        0.3587773620
 O          6.3618119542       -1.7039352699        1.1463606993
 C          7.7468936037       -1.6309800114        0.8746373674
 C          5.5467366904       -0.3977755439       -0.7652501386
 C          0.2475124931       -0.8642529170       -0.5106130245
 C         -3.9022090588        2.9663028253        0.9128514428
 C         -4.5020425696        2.5147744759        2.2424397318
 C         -3.5959923435        4.4602725417        0.9684924336
 H         -4.3621393016        0.8766897070       -1.1951207300
 H         -6.4187952262       -0.0019068129       -1.9026001810
 H         -6.5097350842       -1.4429723922       -2.9430235085
 H         -5.0835724013       -0.3822537297       -3.0305795734
 H         -4.3540363561       -3.9521250883        2.3498972388
 H         -4.5459676685       -5.1730481868        1.0681995674
 H         -2.9511737133       -4.4338293100        1.3520076948
 H         -2.6999248598       -2.2452133069        2.2280637289
 H         -1.9853824836        0.0763373388        2.2577460091
 H         -3.0346509288        2.6636613606       -1.5386894423
 H         -1.6486346502        3.4688692559       -0.8192970025
 H         -1.6828902074        0.4964919095       -1.5238020442
 H         -1.1795533156        1.7784439894       -2.6289997054
 H         -0.5579278816        1.8895337150        1.0026103873
 H          0.6899743356        2.4304198892       -1.1195046116
 H          2.5451926668        0.1764248749        0.4965525633
 H          2.6017478576        1.5452653930       -0.6320198032
 H          2.5525934372       -0.2014600781       -2.5219538249
 H          2.9017091162       -1.4202704472       -1.2803506212
 H          4.4309529840        1.1984910129       -3.4611542693
 H          7.0445818329        1.4655130382       -3.0725365775
 H          4.5116157065       -1.8666355562        2.7990097325
 H          4.5613429902       -3.3112114596        1.7653114514
 H          3.0054428371       -2.4933372449        2.0737894293
 H          8.2098106436       -2.3247757229        1.5759235148
 H          7.9657536877       -1.9392281902       -0.1487841990
 H          8.1277504748       -0.6252453888        1.0611175962
 H          7.7228528506        0.1554248054       -0.9222523298
 H          0.0855871254       -1.3602082062       -1.4702750949
 H         -0.7099312892       -0.7782656256        0.0071648509
 H          0.9144408841       -1.4801854741        0.0880773111
 H         -4.6544804149        2.8023855610        0.1325091204
 H         -3.7832161195        2.6585933577        3.0424501923
 H         -4.7902093210        1.4669988643        2.2093056793
 H         -5.3874928214        3.1059453784        2.4606562129
 H         -2.8429698365        4.6630969944        1.7238288519
 H         -3.2546210940        4.8420108346        0.0099607980
 H         -4.5002306631        4.9995070540        1.2382692153
 H         -0.6844271916        2.9585522194        3.0746188256
