25
 energy: -42.546209973433 xtb: 6.6.1 (8d0f1dd)
C            3.22998504112176        1.18245141895963        0.08589677156081
N            2.28511903909234        0.09272197199027        0.03178944847663
C            2.53709321303595       -1.23441912867197        0.03539310057641
N            1.43270098584637       -1.96365855890817        0.00530516088438
C            0.40651774271989       -1.07382493639534       -0.00997846042783
C            0.91221206838968        0.22298256058723        0.01149822391727
C            0.08834878136301        1.40509047290302       -0.00462346131341
O            0.47145285977447        2.56132595380056       -0.00188527867404
N           -1.27169586778950        1.08084209892213       -0.03059090246725
C           -2.23782192437108        2.17100909557986       -0.04973905016869
C           -1.81858633013259       -0.19072387178960       -0.04756985911356
O           -3.01800353058366       -0.35582156450097       -0.07177948042385
N           -0.94027222211416       -1.27008278648256       -0.03689498083615
C           -1.47333618271388       -2.61526641461741       -0.05983955195640
H            3.71317053980184        1.23009205561619        1.06480584650504
H            4.00005239074113        1.05142300213046       -0.67526061972714
H            2.70331709451288        2.12279357579498       -0.08553432815129
H            3.54152869207867       -1.61482061201386        0.03986044743969
H           -1.69016131869185        3.11077552095772       -0.02437572149884
H           -2.84367622789428        2.11241578901851       -0.95346409454593
H           -2.89693187515302        2.09443113020126        0.81427495920290
H           -1.14542160694917       -3.15797256507040        0.82748524686046
H           -1.12184418632123       -3.13652937453485       -0.95106318821397
H           -2.55794537280723       -2.53680552793775       -0.07348877584467
H            1.69716713547783       -3.65353361245378       -0.01933224288784
