25
 energy: 0.000000000000 xtb: 6.6.1 (8d0f1dd)
C            3.23720163006194        1.16630919979326        0.08434469647475
N            2.29877817382611        0.07527477071623        0.03981603040599
C            2.58028210190900       -1.21425402444508        0.03006176031096
N            1.43813958087363       -1.93419271955128        0.00098261760884
C            0.39035688448383       -1.05887472636071       -0.00790371836672
C            0.93510056364412        0.21347819449412        0.01709077491437
C            0.09450143893243        1.40504303904423       -0.00410947031874
O            0.49712751527797        2.54126714362870       -0.00342325688240
N           -1.25076640035757        1.06271879480407       -0.03085478223738
C           -2.21907211982101        2.15522099834493       -0.05001256985998
C           -1.81739487048744       -0.20012725993278       -0.04692818574614
O           -2.99983886758376       -0.37846417018721       -0.07008878229737
N           -0.92618586207120       -1.30210215599479       -0.03682761578324
C           -1.46982264913417       -2.64643102187190       -0.06029820460571
H            3.71247264356769        1.21471455160235        1.06488849150277
H            4.00791497605742        1.03430808813993       -0.67357694370751
H            2.69910007168542        2.09770118228144       -0.09130154882931
H            3.56654120610678       -1.63682992603973        0.04233140067262
H           -1.67107961066214        3.09322851271934       -0.02552706933167
H           -2.82428953597071        2.09428624779827       -0.95318082946668
H           -2.87644029173232        2.07745725625962        0.81450067533302
H           -1.17061996399332       -3.19584890659852        0.83242232437030
H           -1.14560257411436       -3.17511610292205       -0.95688275822323
H           -2.55549792440841       -2.55659984320617       -0.07459039797972
H            1.38130855184625       -2.94313852034425       -0.01389874181052
25
 energy: -2.527783976873 xtb: 6.6.1 (8d0f1dd)
C            3.23507844858013        1.17929576849325        0.08625444704213
N            2.29868860482881        0.08997038099573        0.03771631875649
C            2.59245389560618       -1.24202064623099        0.03031156579276
N            1.43865404869026       -1.99024802605779        0.00024863690405
C            0.40241521966027       -1.07889004059102       -0.00842695592613
C            0.92380856018707        0.21344947649139        0.01506914668614
C            0.09738233156406        1.39978478884707       -0.00480410110243
O            0.49405306254829        2.56670254677301       -0.00359431979307
N           -1.26570167954065        1.06349853297322       -0.03091694839668
C           -2.23041145538383        2.16105998161750       -0.05003030526048
C           -1.82254787715642       -0.19012577063696       -0.04717480667362
O           -3.01950202701551       -0.37083970001073       -0.07050489159861
N           -0.93282332240535       -1.29619974880819       -0.03688057330391
C           -1.47027405088704       -2.63225574037973       -0.05985845261289
H            3.71686033131636        1.22939560436374        1.06680153465959
H            4.00562068085040        1.04646097573910       -0.67486765638205
H            2.70085382507527        2.11263313070916       -0.08922069395842
H            3.57436823245185       -1.64917139569159        0.04345666664475
H           -1.67870768542725        3.09868296871069       -0.02542867389656
H           -2.83861704126875        2.10845657862179       -0.95309405471247
H           -2.89146132534006        2.09161219501502        0.81375671419017
H           -1.15559253437447       -3.17520711706459        0.83267228454497
H           -1.13109275115507       -3.15447856086237       -0.95585320805369
H           -2.55523471260035       -2.54372746874351       -0.07389179989927
H            1.42394388913198       -3.04881011210121       -0.01470597750348
25
 energy: 2.288867050797 xtb: 6.6.1 (8d0f1dd)
C            3.23138080950139        1.18398664327520        0.08746620660765
N            2.29538680387223        0.09565221702932        0.03432789469665
C            2.59654138865409       -1.26248810583705        0.03118556751160
N            1.43744122689414       -2.03857637184373       -0.00004735148510
C            0.41183004778867       -1.10060795912010       -0.00919827027051
C            0.91149509347770        0.20498898270880        0.01260678399577
C            0.09934842006217        1.38464192354206       -0.00545297772023
O            0.48516663228839        2.56434128365717       -0.00361305892430
N           -1.28302053985245        1.06935158147565       -0.03095296438771
C           -2.24177196368846        2.17291338795943       -0.05006980153329
C           -1.82445126329687       -0.17648571913202       -0.04731149557257
O           -3.02577001439042       -0.36430553810612       -0.07092122479906
N           -0.93917403732162       -1.28352256454613       -0.03682231518355
C           -1.47027978210131       -2.61485796000642       -0.05932003334314
H            3.71868101063054        1.24066366281944        1.06711048213943
H            4.00284436116490        1.05883914780779       -0.67608951626186
H            2.69959576901917        2.12016095955954       -0.08600849091524
H            3.57988372614232       -1.65076894009209        0.04512327478004
H           -1.68669535973108        3.10955916443124       -0.02509951667068
H           -2.85310227703251        2.12655439902900       -0.95252221766506
H           -2.90681561231731        2.10948562919140        0.81226862537595
H           -1.14132486920579       -3.15267062949032        0.83224556819841
H           -1.11766809376061       -3.13208139722614       -0.95407908269296
H           -2.55488265483908       -2.53429981552176       -0.07298524616546
H            1.48757584597802       -3.14144537939215       -0.01480694356748
25
 energy: 5.079281725829 xtb: 6.6.1 (8d0f1dd)
C            3.22955051623935        1.18310925802307        0.08761171839896
N            2.29468954506580        0.09435615438696        0.03221625278415
C            2.59501147603110       -1.26889922196912        0.03190621515822
N            1.43553341997368       -2.05272262123515        0.00012485547928
C            0.41416706369663       -1.10889393716245       -0.00958036452247
C            0.90800859949553        0.19911720437827        0.01157591694263
C            0.10045622050867        1.37864301428493       -0.00556800823739
O            0.48158722001858        2.55805182053864       -0.00353833116493
N           -1.29031212894765        1.07555702202382       -0.03096917229795
C           -2.24632994692129        2.18022590888853       -0.05018584695938
C           -1.82561074084415       -0.17055579137601       -0.04737082009188
O           -3.02600318322932       -0.36518074207934       -0.07125895714853
N           -0.94091356499821       -1.27556169318407       -0.03662936096853
C           -1.46962494324855       -2.60805956865277       -0.05894912446739
H            3.71728640204778        1.24209954476427        1.06702912230180
H            4.00102564337537        1.06346283646580       -0.67686052273709
H            2.69696996775703        2.12013369099627       -0.08418976507158
H            3.58206043287012       -1.64932067547180        0.04560066731897
H           -1.69058822626904        3.11623295849208       -0.02485261531545
H           -2.85819984304470        2.13466660443275       -0.95254510635860
H           -2.91248557421607        2.11731992427522        0.81156623845721
H           -1.13568383706002       -3.14356050047220        0.83216701445145
H           -1.11258128610546       -3.12311206129145       -0.95322572385207
H           -2.55440906941046       -2.53427208213000       -0.07239206275562
H            1.51861050515151       -3.17380844475422       -0.01464832319649
25
 energy: 5.806804507378 xtb: 6.6.1 (8d0f1dd)
C            3.22925818367569        1.18181621269660        0.08761029961317
N            2.29537900711302        0.09247255739500        0.03104495241449
C            2.59280578241412       -1.27002285745119        0.03255441031636
N            1.43351137889926       -2.05340076103031        0.00040988206684
C            0.41382234831204       -1.11040161149939       -0.00972213648904
C            0.90809980367538        0.19702554302615        0.01121269279515
C            0.10135069808987        1.37784051103159       -0.00562352429442
O            0.48064096078646        2.55553465455376       -0.00343741319636
N           -1.29203455696017        1.07852337015657       -0.03099745332292
C           -2.24732713750191        2.18247327036457       -0.05027171575786
C           -1.82659106806435       -0.16902982827181       -0.04741378626496
O           -3.02578137287131       -0.36692711734579       -0.07143509875364
N           -0.94128531751335       -1.27200666138071       -0.03642219437209
C           -1.46904748136319       -2.60653874230566       -0.05874536596053
H            3.71634987302145        1.24096366887732        1.06709045623621
H            4.00055142409608        1.06437164336483       -0.67706422825109
H            2.69569136351435        2.11881380268308       -0.08351376445539
H            3.58160044952099       -1.64812222809847        0.04522906310530
H           -1.69204038667038        3.11846976851374       -0.02474300011740
H           -2.85902925078393        2.13655347651452       -0.95275748985871
H           -2.91358502693647        2.11901327782217        0.81139811220220
H           -1.13380940671610       -3.14093239575902        0.83229145877934
H           -1.11093539424587       -3.12049348993995       -0.95299495624921
H           -2.55392200678205       -2.53605992937212       -0.07211726214020
H            1.52854180122657       -3.18090753237347       -0.01454804189801
25
 energy: 5.882207275810 xtb: 6.6.1 (8d0f1dd)
C            3.22933766333546        1.18111387372570        0.08762834353370
N            2.29620605266795        0.09118417840888        0.03025031107997
C            2.59130722430779       -1.27006486718198        0.03335141404548
N            1.43207735780704       -2.05143152797021        0.00071307174465
C            0.41307015313574       -1.11014045288905       -0.00981182264217
C            0.90878492765795        0.19667381059815        0.01102368508569
C            0.10206563629803        1.37822280748945       -0.00573299068857
O            0.48042871778105        2.55521211121526       -0.00337534908378
N           -1.29194773341204        1.07918401802141       -0.03102971435065
C           -2.24716314481950        2.18250076068090       -0.05030545887821
C           -1.82728809391614       -0.16897428607841       -0.04742965123907
O           -3.02584943673726       -0.36765103855200       -0.07149970951889
N           -0.94150592892534       -1.27072796961091       -0.03625203091085
C           -1.46874317528717       -2.60654499036382       -0.05865894331295
H            3.71596300549528        1.24006507250935        1.06721112372521
H            4.00068255611673        1.06444646672737       -0.67694445493600
H            2.69521146793379        2.11788334551037       -0.08333500316515
H            3.58064256502853       -1.64766806591509        0.04446618014771
H           -1.69249869169636        3.11878895942849       -0.02468783948740
H           -2.85882377589491        2.13650350989243       -0.95286051699624
H           -2.91346970024430        2.11883995585907        0.81136334415063
H           -1.13308338156103       -3.14027704478190        0.83240546001130
H           -1.11027918402089       -3.11975935235524       -0.95300445587462
H           -2.55360200034726       -2.53717099694647       -0.07201880826776
H            1.53069158723307       -3.18117967524974       -0.01443228802477
25
 energy: 5.805082517212 xtb: 6.6.1 (8d0f1dd)
C            3.22939330343801        1.18097987127662        0.08768041763445
N            2.29681743074422        0.09055145876082        0.02959837833039
C            2.59064865550151       -1.27016212855015        0.03455354928563
N            1.43137970894460       -2.04983317567855        0.00103255638268
C            0.41258714263679       -1.10962781998788       -0.00991738255814
C            0.90926330534700        0.19714652117864        0.01087411237033
C            0.10259476828463        1.37867550115261       -0.00587531150721
O            0.48038085144459        2.55587248895232       -0.00338459934093
N           -1.29145947566596        1.07875383736084       -0.03106214432673
C           -2.24674498886277        2.18187749352096       -0.05030965897514
C           -1.82764134355680       -0.16926907299959       -0.04742257423727
O           -3.02609279345744       -0.36747883573704       -0.07149620085400
N           -0.94172479930609       -1.27059403232252       -0.03611437607968
C           -1.46863848902851       -2.60689210617297       -0.05864029954523
H            3.71577478643876        1.23981911853516        1.06738315617379
H            4.00102856550758        1.06455455140851       -0.67666450221321
H            2.69497649020117        2.11748047587645       -0.08335627892680
H            3.58002000936912       -1.64781730210168        0.04325196187151
H           -1.69247788124925        3.11845834329755       -0.02465998157935
H           -2.85849178576824        2.13603231197696       -0.95287301333566
H           -2.91313925328911        2.11829977771545        0.81136013920221
H           -1.13284489808047       -3.14034681840685        0.83243025051937
H           -1.11002927428368       -3.11971376185417       -0.95305607466874
H           -2.55345111877077       -2.53750556980484       -0.07201185055375
H            1.53008575139734       -3.18023252522464       -0.01428637692125
25
 energy: 5.800529370485 xtb: 6.6.1 (8d0f1dd)
C            3.22934692084812        1.18109739822891        0.08774959802061
N            2.29696691671750        0.09049143083610        0.02926561693422
C            2.59067112284271       -1.27041526436953        0.03582579286230
N            1.43140300268331       -2.04972245944194        0.00125269873093
C            0.41260769051241       -1.10953945234043       -0.01002616725914
C            0.90927319779432        0.19752771445751        0.01078195430672
C            0.10277984699937        1.37875026086535       -0.00597258387875
O            0.48031362858509        2.55625547308213       -0.00345476083287
N           -1.29136678098129        1.07846730689830       -0.03108932573222
C           -2.24665156806739        2.18170644361216       -0.05031517033066
C           -1.82761610309642       -0.16932679774638       -0.04741649593319
O           -3.02617199660532       -0.36720189316028       -0.07147161997440
N           -0.94179396917734       -1.27076476919833       -0.03606010967987
C           -1.46864389095876       -2.60697066084765       -0.05864490702235
H            3.71563357230120        1.23999357881382        1.06752723993517
H            4.00121147364416        1.06478496795621       -0.67645487954934
H            2.69481759809696        2.11747217502743       -0.08338060617298
H            3.58004846875198       -1.64803066288464        0.04195634389521
H           -1.69236015539557        3.11830694611887       -0.02466394267108
H           -2.85844029399688        2.13593582488666       -0.95286859407851
H           -2.91307382535005        2.11819071372701        0.81135240162615
H           -1.13287022164660       -3.14047977114790        0.83240484385828
H           -1.11002694217261       -3.11979732200427       -0.95305940330426
H           -2.55345212698614       -2.53739331735013       -0.07202619443286
H            1.52960910259346       -3.18030926184698       -0.01417783316981
