  25
        -42.15243557
 C          3.4370524914        0.5148276267        0.0243479725
 N          2.3494371893       -0.4233513038       -0.0263746225
 C          2.4334594725       -1.7473963582       -0.1433462831
 N          1.1909622900       -2.2880796826       -0.1360398928
 C          0.2867903186       -1.2686495049       -0.0092525436
 C          1.0226455898       -0.0902345233        0.0608627167
 C          0.3365855937        1.2082956063        0.1585995959
 O          0.9337009637        2.2694255132        0.1783573280
 N         -1.0001183535        1.0731386363        0.2053602445
 C         -3.0395307786        4.3208566774       -0.6091067354
 C         -1.7437221942       -0.0229820086        0.1633890556
 O         -2.9473580473       -0.0555679193        0.2080646746
 N         -1.0474846889       -1.3084853065        0.0370210422
 C         -1.8145554875       -2.5250731509       -0.0550202794
 H          3.9496630756        0.4511938803        0.9865147059
 H          4.1536170194        0.3100202486       -0.7701937008
 H          3.0312697362        1.5216643861       -0.0880027290
 H          3.3424705207       -2.3070145381       -0.2340965722
 H         -2.1158784016        4.8640374303       -0.5985158452
 H         -3.4441871896        3.9625642708       -1.5357825025
 H         -3.5457880581        4.1037455166        0.3115238413
 H         -1.6384279094       -3.1630995852        0.8139055930
 H         -1.5725514749       -3.0660660481       -0.9706512328
 H         -2.8673624605       -2.2390505384       -0.0726651527
 H          0.9786147060       -3.2729261194       -0.2071340355
