25
 energy: -42.471323504017 xtb: 6.6.1 (8d0f1dd)
C            3.19525730339315        1.14033524413664       -0.05165805815169
N            2.27922711387803        0.16981628799761       -0.09200283319125
C            2.52691353895736       -1.15203787505768       -0.02459875530025
N            1.35155145903537       -1.86835375513278       -0.00547050486127
C            0.33537615832868       -0.99364481178012       -0.04495661923031
C            0.86746916596610        0.29581661507645       -0.09618854986160
C           -0.00111614947498        1.43225352891541       -0.02627362834685
O            0.30104820581058        2.60507781872736        0.03665856043596
N           -1.36949167573356        1.04227706476086       -0.02916017347560
C           -2.36095359945724        2.10826414863025       -0.04430198932672
C           -1.90114622960836       -0.22049370626921       -0.04784520158163
O           -3.09207677783184       -0.43279564960916       -0.07098584118589
N           -0.99445363827331       -1.27933585432393       -0.03264429920306
C           -1.50860531083143       -2.63645884187070       -0.01977008297900
H            4.07970213053475        0.89955116634681        0.52681170261877
H            5.27200664124768        1.06684280240914       -0.28168817844543
H            2.83119384182845        2.15089633840817       -0.05325562737355
H            3.50079180141314       -1.58509637588186        0.01265610473737
H           -1.83199407993915        3.05581009239649       -0.01798333037563
H           -2.97043846556987        2.03853335604816       -0.94676029916791
H           -3.02085352127159        2.01986373030222        0.81836298509815
H           -1.22534869853045       -3.15642976713725        0.89718127172073
H           -1.15713332456032       -3.19672468134677       -0.88782878827479
H           -2.59819205162821       -2.57376742178778       -0.06221358615603
H            1.30120602669570       -2.87405468974261       -0.00406621614304
