  72
        -99.29648765
 N         -1.6943853159        2.7176751490        2.4676067701
 C         -1.7305696928        2.0354133747        1.4229987980
 C         -2.8969478112        1.9880038754        0.4761074217
 C         -3.4853326724        0.5859129736        0.4601202323
 C         -4.4674081403        0.2590525827       -0.4704581518
 C         -5.0129063484       -1.0191220587       -0.5321373283
 O         -5.9698171176       -1.4155100566       -1.3754266950
 C         -6.4381583208       -0.5334852512       -2.3696518294
 C         -4.5613670825       -2.0184157213        0.3838723869
 O         -5.1357283049       -3.2190008113        0.2510315221
 C         -4.7105814395       -4.2861264297        1.0676091619
 C         -3.5954581847       -1.6731773026        1.3196473263
 C         -3.0737716602       -0.3909514976        1.3598909837
 C         -2.3204244505        2.3307478778       -0.9245389419
 C         -1.4789435619        1.2164004149       -1.5687930066
 C         -0.1267312199        1.0718977701       -0.9756934563
 N          0.4945351980       -0.0796646638       -0.7195708413
 C          1.8901427857       -0.0011535548       -0.2893271026
 C          2.8418599167       -0.2277619466       -1.4750282933
 C          4.2716514699       -0.1510934889       -1.0151970646
 C          4.9809012869        1.0377835396       -1.0976150359
 C          6.2929541972        1.1149906074       -0.6586597458
 C          6.9232713016        0.0020407815       -0.1179865010
 O          8.1867159507       -0.0424131121        0.3350387218
 C          9.0037579769        1.1006774488        0.2255448679
 C          6.2004287364       -1.2220271775       -0.0203617928
 O          6.8858453485       -2.2462896768        0.5169838473
 C          6.2719043963       -3.5080557342        0.6353515345
 C          4.8896487960       -1.2741600321       -0.4706548804
 C         -0.0111486255       -1.2962353013       -0.8409541195
 C         -4.0296824622        2.9900622315        0.8493514275
 C         -4.6698195452        2.6310701211        2.1880945664
 C         -3.5694480010        4.4445017446        0.8698910130
 H         -4.7997226382        1.0008730250       -1.1776203242
 H         -6.9164906036        0.3476832780       -1.9307155151
 H         -7.1761545375       -1.0977145133       -2.9370392886
 H         -5.6274819979       -0.2224711403       -3.0351797403
 H         -4.9011244081       -4.0813018178        2.1254146559
 H         -5.2991017338       -5.1466122168        0.7549292599
 H         -3.6476176339       -4.4989949664        0.9207943504
 H         -3.2388245188       -2.4050917988        2.0262308332
 H         -2.3385038406       -0.1589843458        2.1147689600
 H         -3.1515867341        2.5535670482       -1.5926758629
 H         -1.7131727749        3.2339117906       -0.8413177264
 H         -2.0325390113        0.2730360089       -1.5486934004
 H         -1.3528543945        1.4872822149       -2.6251623729
 H         -0.8840155145        1.4272370860        1.0571282842
 H          0.4631762981        1.9687331484       -0.8633171267
 H          2.0702294647       -0.7626992241        0.4720935873
 H          2.0858202189        0.9783834493        0.1500462870
 H          2.6532638765        0.5312621934       -2.2364055019
 H          2.6400838391       -1.2073317123       -1.9123560744
 H          4.5144771394        1.9144462659       -1.5200633564
 H          6.8210487936        2.0503000354       -0.7438907778
 H          8.6191862536        1.9271454637        0.8305590209
 H          9.1023598605        1.4235816355       -0.8146839524
 H          9.9783573272        0.7996972446        0.6046872262
 H          7.0246277529       -4.1586281926        1.0766572620
 H          5.3982391033       -3.4681046346        1.2937151464
 H          5.9784583502       -3.9044338608       -0.3413428616
 H          4.3390579462       -2.2001482347       -0.4158780284
 H         -1.0172911767       -1.4607968389       -1.1934498578
 H         -2.8239735228       -1.4934808789       -1.6941455493
 H          0.6011864950       -2.1371360752       -0.5890455711
 H         -4.7973891463        2.8916637657        0.0735118306
 H         -3.9452275754        2.7418635113        2.9890586973
 H         -5.0396101764        1.6083704102        2.1855511164
 H         -5.5056177624        3.2977420765        2.3842198773
 H         -2.7830771624        4.5814850163        1.6061359346
 H         -3.2118536014        4.7705738766       -0.1030693158
 H         -4.4073396962        5.0793670432        1.1464716283
 H         -0.8483113530        2.7069491192        3.0275642998
