25
 energy: -42.436932662302 xtb: 6.6.1 (8d0f1dd)
C            3.25254862401406        1.12188311227691        0.00632215766811
N            2.32871617478207        0.02088113092736        0.03667954319785
C            2.61372809347735       -1.30012264964913       -0.03387443066288
N            1.46161035259369       -2.00917491612865       -0.01727232313226
C            0.41650552768918       -1.14524244792280        0.01607953687621
C            0.93281814841780        0.15673124403389        0.02314768639280
C            0.12596661393350        1.30766868423876        0.01072444897398
O            0.47019632770570        2.48837911999260       -0.06429124731431
N           -1.29962869137289        0.98755421457318        0.03893470304101
C           -2.12785015946301        2.03264292664843       -0.14893130115247
C           -1.82081824443988       -0.31327462648495        0.04823781813334
O           -3.01250303450825       -0.54850396156092        0.07354720208340
N           -0.91178789689062       -1.38604871312209       -0.00501383535569
C           -1.40010628967151       -2.74887917749223       -0.02177359904902
H            3.73237267499718        1.24129185282535        0.98146955604444
H            4.03147639969117        0.95423711258204       -0.73788268073767
H            2.70828308564874        2.03648645161346       -0.23150154749311
H            3.59452023761858       -1.72114304403797        0.02776491373509
H           -3.19776287262188        4.55650588664279        0.29954768553714
H           -1.59381750150670        2.94780239338698       -0.41360404365527
H           -3.16900264547996        1.84331616883555       -0.33733610525210
H           -1.09431371625310       -3.27787596690564        0.88438387151284
H           -1.01188196492894       -3.26480667339729       -0.89924621085049
H           -2.48728399210057       -2.71431337660747       -0.06818095130787
H            1.41800010106836       -3.01513831322557        0.02530891997097
