25
 energy: -42.129995521821 gnorm: 0.006009444191 xtb: 6.6.1 (8d0f1dd)
C            3.30777907891112        0.98225606738928       -0.13671648350934
N            2.41372029491910       -0.00361227017100       -0.08950087342023
C            2.63208164486270       -1.32906443630736       -0.28857927315585
N            1.45738869187538       -1.99469958732149       -0.22165650595949
C            0.46384958902926       -1.08452347300339        0.03044237698458
C            1.05992500163312        0.14756960188898        0.14331537589162
C            0.28833659630328        1.43014835091515        0.30414736519570
O            0.69186674759912        2.40957300508182       -0.44168556042387
N           -1.15829355682443        1.06615138026698        0.11548164849110
C           -2.02845596020049        2.20836520167040       -0.01872823245590
C           -1.73046083785852       -0.16547239297487        0.12163990781767
O           -2.92281435262772       -0.33854575592266        0.10295204700011
N           -0.86527280755915       -1.29444394459973        0.11856971891489
C           -1.44705572738065       -2.61681101541872        0.06885993505828
H            0.32946096718380        1.74804623846781        1.39203760637429
H            4.34061171609867        0.75562384114124       -0.32050509589872
H            2.94847097937590        1.99335759788672       -0.05360273047607
H            3.58818074451924       -1.77381451955461       -0.47534613150630
H           -1.47446951988091        2.98562321004797       -0.54907034005049
H           -2.92575496264662        1.92425877841952       -0.56517201398883
H           -2.32376210295389        2.59170567576267        0.96229341981259
H           -1.04119867943976       -3.24030950086019        0.86582869496207
H           -1.27063253743951       -3.08621310233977       -0.90111247146123
H           -2.52203884548694       -2.50564966850388        0.21053009672457
H            1.34896935208789       -2.99128074036471       -0.34325086302170
