25
 energy: -42.480989088510 xtb: 6.6.1 (8d0f1dd)
C            3.22405670512326        1.51587872280703        0.14156491579165
N            2.52191043513708        0.20875357529636        0.01577159318288
C            2.90950547694609       -1.09066468622352        0.04823602837666
N            1.81250945143015       -1.91382549214279        0.03543289492428
C            0.64838089298282       -1.16935647448396       -0.03974614564584
C            1.14413375348641        0.15552816764596       -0.06890520247963
C            0.25760694728766        1.27414717448681       -0.10969255325525
O            0.58671465034576        2.45648946591203       -0.13492895146673
N           -1.05048099916633        0.87022287336090       -0.08774988582185
C           -2.05644816437987        1.92943520218100       -0.05213012081144
C           -1.52990625781556       -0.45510398634868       -0.08805935031944
O           -2.74954364609428       -0.43403016386809       -0.09103090982965
N           -0.64447489870869       -1.55222505206892       -0.06960672322920
C           -2.73475519270566       -3.00276777570169       -0.07568091621117
H            3.99978949015631        1.50698374156470        0.91199936001920
H            3.70710541532695        1.87155978943475       -0.78523058117167
H            2.49140190809943        2.29200055577808        0.43306144848020
H            3.90995957031311       -1.48571587857740        0.12594920587946
H           -1.44801628753811        2.82869556478814       -0.03214667383275
H           -2.69151253150222        1.88761413026794       -0.93517559164216
H           -2.68968179575562        1.85500505501863        0.83448238800868
H           -2.60652593811115       -3.46684744240734        0.85655949935362
H           -2.54672742215483       -3.49666603465529       -0.98199305836251
H           -3.22339530656970       -2.06862488341282       -0.10678124729957
H            1.80715395248277       -2.92779754599876        0.08653809542524
