72
 energy: -99.514617625290 xtb: 6.6.1 (8d0f1dd)
N           -1.56698350254005        3.29503907529864        2.16293934408495
C           -1.58540256874958        2.45681062120912        1.23453639238324
C           -2.74792502051037        2.24029924072683        0.31084341333578
C           -3.26327878620626        0.80202819207059        0.48706808932953
C           -4.16838477289643        0.28136851249627       -0.42745903407163
C           -4.64432282755424       -1.03595016210688       -0.31866324676246
O           -5.59800457803085       -1.51002542253603       -1.17228977511623
C           -6.20101062350609       -0.63269972927011       -2.07954370351285
C           -4.18657285621490       -1.87844890806420        0.69658050905676
O           -3.29020587147067       -4.93380968721135        0.31619631404499
C           -4.28102257607995       -5.46693396058786        0.97588200324679
C           -3.28317984892486       -1.36452006393694        1.58602485516816
C           -2.85792949377312       -0.04250022797752        1.51051438620913
C           -2.16596205721756        2.45281855008645       -1.11796593421461
C           -1.30860089095908        1.30248442726873       -1.68016017109803
C            0.02408961978317        1.16114940995948       -1.06102660439317
N            0.51485394254043        0.03547768586639       -0.53108750627631
C            1.89690173782065       -0.02786865731745       -0.12317654843090
C            2.82135904902942       -0.57963038697168       -1.22991301480179
C            4.26149855743958       -0.49253942494339       -0.80023737667435
C            4.98332574258196        0.67220670256202       -0.98538285430165
C            6.30356029787813        0.77050245625436       -0.56362722196703
C            6.92286426854160       -0.30016388703063        0.05553145242253
O            8.20773416419477       -0.32176987129043        0.50114931210185
C            9.00486828677148        0.82244830858330        0.31626621692287
C            6.19419024526281       -1.49538528789316        0.25662288991539
O            6.88631042600300       -2.49092216448198        0.87090811970130
C            6.25132343783674       -3.72516492199715        1.08250343895665
C            4.88003925295111       -1.57184433278929       -0.16910629124264
C           -0.20307677472287       -1.21602440202260       -0.59398308789374
C           -3.88260755493781        3.27956790927365        0.51882685021940
C           -4.52585605464507        3.11000302658233        1.89173204321183
C           -3.41832824623638        4.73410593824272        0.35998175906444
H           -4.52121473961820        0.92175548179218       -1.22498088747226
H           -6.60770478305527        0.24654143922251       -1.56830033588836
H           -7.02293560730191       -1.17210369392002       -2.55534293014272
H           -5.51149932197950       -0.30334526412977       -2.86912011843389
H           -4.76819554249304       -4.26604490057465        1.15505280012600
H           -4.95743534478812       -6.17118775555620        0.43311879387963
H           -3.79738143322593       -6.18924511781498        1.72106177759389
H           -2.89399610701615       -1.98045481815287        2.39127061655667
H           -2.23835098204424        0.31194867718913        2.31157181526961
H           -2.99508872422261        2.60244915665141       -1.81773032263862
H           -1.55573140944812        3.36422324821831       -1.09631912906533
H           -1.86967311656606        0.37479964142267       -1.60947251227530
H           -1.15433996752608        1.52626992130737       -2.74472878554923
H           -0.72435041286431        1.81512935316386        0.94789500788546
H            0.66269638298858        2.03668054042416       -1.02730187725234
H            1.98078267498548       -0.66457462088966        0.76170301786306
H            2.23179633343868        0.97637037378133        0.14430593845891
H            2.66966018863185        0.01356012300384       -2.13449782400005
H            2.54867607857856       -1.61365273136614       -1.44611167175447
H            4.52520162525729        1.51957280074657       -1.47384398131170
H            6.84172303604138        1.69153645375188       -0.72895454650369
H            8.59970074671471        1.69427745821323        0.84285702526225
H            9.12463819738349        1.06652078097228       -0.74490320053666
H            9.97619629473476        0.56807235624305        0.73650680758490
H            6.99883021903675       -4.35731593234388        1.55946373815990
H            5.38672183277613       -3.62673485244058        1.74732973678602
H            5.93545112390414       -4.18110474260679        0.13814230455263
H            4.31662362664812       -2.48027946620407       -0.02401202628558
H           -0.38710819488974       -1.53051016485281       -1.62422563734125
H           -1.16412672791380       -1.12187494060971       -0.08964681610245
H            0.37318477603884       -1.99319419039853       -0.09223698195090
H           -4.64314147073499        3.09821453961136       -0.25108412744693
H           -3.79035993182966        3.32676917700733        2.65925934395827
H           -4.90319271414491        2.10608000882908        2.02313535973018
H           -5.35328702959304        3.80988479055859        2.00117833413686
H           -2.65058707242500        4.97054702899073        1.09068785866926
H           -3.04010635665241        4.95469897921123       -0.64121999475427
H           -4.26348122678414        5.40033623709033        0.53131192100862
H           -0.69283486893222        3.35580918934269        2.67773141861765
