72
 energy: 30.210760679056 xtb: 6.6.1 (8d0f1dd)
N           -1.55614394382714        2.84163400273696        2.26084612923805
C           -1.56772507756184        2.16859452969428        1.20105400052637
C           -2.74428455155539        2.06678909759337        0.26686561917495
C           -3.31378729545220        0.65733795367816        0.34310025772836
C           -4.29358741869908        0.25211572140161       -0.56562908564243
C           -4.84164816535120       -1.01477757672593       -0.51851300506303
O           -5.80696353763605       -1.48286249434845       -1.35700176819618
C           -6.37706847273108       -0.60547841812698       -2.29393168816447
C           -4.40407158351167       -1.93142492632384        0.46299442723234
O           -5.00343875803161       -3.15625956356368        0.43000683701338
C           -4.67137292712480       -4.09343363121568        1.42088305422936
C           -3.43634395700888       -1.53010876728588        1.36288464956340
C           -2.90075155484594       -0.24800287936697        1.30337278101865
C           -2.18133625550340        2.32030002834997       -1.15631664354899
C           -1.28180832284298        1.19085883619838       -1.70018693809672
C            0.02475565754601        1.10502201795055       -1.01447162624793
N            0.62775529962985       -0.07983875352878       -0.63802174808465
C            1.99081345033455       -0.07704608718214       -0.19929098446497
C            2.96234895445182       -0.60470502930001       -1.28864636545663
C            4.38589277204667       -0.55386765171015       -0.80289331222427
C            5.12298291930135        0.60737606270716       -0.96367935634024
C            6.42089961563293        0.69088052062964       -0.48583062368574
C            7.12486706493091       -0.30872172930274        0.17764105295701
O            8.47395905346590        0.06882381247675        0.55355528016161
C            9.34088091651031        1.40729266337920        0.19419879711829
C            6.33338493147637       -1.54084006083563        0.35884646879345
O            6.87478819365447       -2.61659557929182        0.99778736059434
C            6.13457561542270       -3.80798925341312        1.14095512963363
C            5.00924742868213       -1.61615506516042       -0.13076565772287
C           -0.07702364942694       -1.32706053314095       -0.67991630996284
C           -3.88571544080827        3.07547822002462        0.57959102056523
C           -4.53587085478371        2.78064234590273        1.93029515219596
C           -3.42409185227080        4.53121804852971        0.54179219824067
H           -4.63481847509032        0.94593761753285       -1.31616589360528
H           -6.83191029268806        0.26529713461892       -1.80933360507094
H           -7.15324690118101       -1.18058176494639       -2.79706171913571
H           -5.64429904092185       -0.26808059759698       -3.03516408081493
H           -4.89485591619729       -3.71750770476547        2.42484072063703
H           -5.29372807954738       -4.96362904364436        1.21742553948160
H           -3.61637537978411       -4.38581511578816        1.36918657905898
H           -3.09223981795772       -2.20296364176560        2.13298205728137
H           -2.16750251142284        0.04002894142929        2.04137915019754
H           -3.01699334869455        2.45889854294751       -1.84641492309216
H           -1.60464571764429        3.24572336995803       -1.14694606159189
H           -1.82760258453014        0.24997084190415       -1.64472345057316
H           -1.08778035833873        1.40139282870200       -2.76203395677405
H           -0.69542139248951        1.63939610247005        0.77874717074921
H            0.66212323923127        1.97408576349169       -1.01692810404799
H            2.09083325938265       -0.70861124536246        0.69162677948950
H            2.28157907017840        0.94248949881073        0.07266959169018
H            2.84619403185457        0.02622654049411       -2.17350643714172
H            2.65714546846184       -1.61724004378220       -1.56075176268564
H            4.69558278415539        1.45868175568203       -1.47729471806189
H            6.96701425029446        1.60844436851807       -0.64046179149964
H            8.98559296763474        2.31407297652291        0.67947576747392
H            9.49592541579296        1.62146986512053       -0.86379913033628
H           10.31996397499746        1.18051640401446        0.61947327000930
H            6.80954999794722       -4.49414907985880        1.65090390325229
H            5.23354944155305       -3.68442991754480        1.75531024661756
H            5.84637449896256       -4.25141837251681        0.17957659782493
H            4.40446385334036       -2.52571565198718       -0.02317290356855
H           -0.25688181020057       -1.64798542720891       -1.71114718733473
H           -1.04134669786250       -1.25052368699737       -0.16739327216964
H            0.52003484056975       -2.08592798177495       -0.17639138286868
H           -4.64762792316285        2.94445151017359       -0.19897987737448
H           -3.81116461647849        2.91913828933369        2.72411247722624
H           -4.90957541430022        1.76009395326314        1.96735573502524
H           -5.36950350872438        3.45998542506699        2.09491819601308
H           -2.64390913577972        4.69436715431337        1.27758691457793
H           -3.05433524198633        4.81006860889350       -0.44163356801742
H           -4.26221657221117        5.18213429538073        0.78167919388299
H           -0.69080022669039        2.84935733850753        2.78957742085034
