72
 energy: 70.893703816330 xtb: 6.6.1 (8d0f1dd)
N           -1.60547732139274        2.88247054434348        2.28454852213097
C           -1.58580164776643        2.19733633177769        1.24000767446595
C           -2.74272203435665        2.07143169721859        0.28398359512750
C           -3.30958518699179        0.66084072352943        0.35792077923144
C           -4.28295002884585        0.25562243034909       -0.55929263266547
C           -4.83719744486347       -1.00869566631682       -0.50955984968254
O           -5.79482763336470       -1.47648965159877       -1.35124251337886
C           -6.36341780757493       -0.60190454928241       -2.29342700043716
C           -4.40795648049776       -1.92469185516573        0.47914566838305
O           -5.00542612548792       -3.14430680795475        0.44300558498198
C           -4.67584269910978       -4.08924631967312        1.42998324636661
C           -3.44469238961684       -1.52249324469596        1.38351583340022
C           -2.90691015521258       -0.24089958589178        1.32496939589539
C           -2.16272108943904        2.33229410352380       -1.13191381958281
C           -1.30127336286198        1.18989538055987       -1.71505414366628
C            0.04654274038037        1.05503839705001       -1.11225107318821
N            0.59674909508609       -0.07157054090686       -0.66723093512262
C            1.97041249702338       -0.09968345302689       -0.22733687519016
C            2.95967754255499       -0.64679433879008       -1.30180624107495
C            4.36740400026248       -0.63013933981682       -0.78098693644272
C            5.14140620641674        0.52644511262954       -0.90668323824211
C            6.41340404329086        0.57453236010014       -0.40584500796323
C            7.06446676084050       -0.50912276586265        0.27087592180450
O            8.22814976092665       -0.32943923102700        0.67495211152414
C            9.80738706588028        2.02480141528673        0.05637046749231
C            6.22154781497072       -1.71865466261244        0.38886318652781
O            6.76446679534092       -2.79201909674548        1.02564059566809
C            5.99791085860318       -3.95848027532979        1.13408112723739
C            4.93071213727585       -1.73363588530037       -0.11832886897097
C           -0.10150980641673       -1.33448177398641       -0.72129506586777
C           -3.89640480753219        3.07528242609745        0.57762090555815
C           -4.56321124095935        2.78315310100017        1.92077491919474
C           -3.44397867874639        4.53332018999027        0.53607917973125
H           -4.61704710871765        0.94681225841555       -1.31557661257376
H           -6.81893643136095        0.27032572527560       -1.81280968463059
H           -7.13839717241028       -1.17783856772848       -2.79701375986643
H           -5.62773488276229       -0.26832374230906       -3.03339194802419
H           -4.90382944865395       -3.71983090266909        2.43464118871091
H           -5.29590412909631       -4.95849414737121        1.21736070449285
H           -3.62033455901509       -4.37874751697280        1.37915416262865
H           -3.10764432859734       -2.19320034398739        2.15781439587452
H           -2.18090293937714        0.04801383548599        2.06950774830320
H           -2.99651561804508        2.50721635482012       -1.81646452234421
H           -1.56674128196340        3.24389783479616       -1.10613268443993
H           -1.85889988862655        0.25628531864445       -1.65384495225473
H           -1.14542295690008        1.41786208540877       -2.77799902473866
H           -0.70220241975712        1.64196290808375        0.88269987720255
H            0.66311842870912        1.94336080495692       -1.06288624184193
H            2.05144461787550       -0.72969289200947        0.66256547268986
H            2.27650462221325        0.91386093893977        0.04447978660566
H            2.89084329191278       -0.00043974567377       -2.17959363285922
H            2.64014970274229       -1.64956276872993       -1.59579488725482
H            4.74186537388731        1.39487444069157       -1.41962215305539
H            7.00644688191299        1.47556098361210       -0.51959618107460
H            9.26124576116837        2.74811904834042        0.59282560807959
H            9.77120533976935        2.02873050829420       -0.99714960713507
H           10.62259415032956        1.55528228504742        0.53466175031068
H            6.63334108037475       -4.67642761014073        1.64755154169432
H            5.08312240083227       -3.81797445992229        1.72606609952489
H            5.71828438032226       -4.37487333548608        0.15735962198288
H            4.30723511545754       -2.62556749465399       -0.04258113580479
H           -0.28027346430368       -1.65157151352657       -1.75189189563183
H           -1.06323593670364       -1.25720255960868       -0.20733618549325
H            0.49387145413502       -2.09671447939881       -0.22133001466045
H           -4.64576941814386        2.93190008360632       -0.20992564450834
H           -3.85195625666371        2.92999804845750        2.72518268571275
H           -4.93417323593058        1.76185337710197        1.95850185346856
H           -5.40138745700509        3.45974297410679        2.06940565548629
H           -2.67478521302888        4.70780842185910        1.28077431598875
H           -3.06565892260065        4.80968428010903       -0.44456751766746
H           -4.28891727809318        5.17903621562220        0.76236045955795
H           -0.75951878455265        2.91478310221973        2.84208551258833
