72
 energy: -5.211711397354 xtb: 6.6.1 (8d0f1dd)
N           -1.49980186878180        2.78060482044279        2.23861018957195
C           -1.55229442409307        2.15265688444050        1.15276309364032
C           -2.74612273399384        2.06050894641266        0.24648881237028
C           -3.31469226809492        0.64900031561038        0.32684927746336
C           -4.30178864383765        0.24659945690468       -0.57538605751781
C           -4.84786547374634       -1.02134887163010       -0.52926962924412
O           -5.81831280195722       -1.48855856050111       -1.36322960040418
C           -6.39323098357179       -0.60876435607155       -2.29499221155822
C           -4.39891371476981       -1.94092311489355        0.44518447101968
O           -4.99382246649091       -3.16620540287176        0.41244723516175
C           -4.66517238441682       -4.09912422746059        1.40930221937402
C           -3.42419488190236       -1.54145992440073        1.33876209044464
C           -2.88872007013017       -0.25918043631032        1.27913116143541
C           -2.19386308550982        2.30401439775388       -1.18199908888916
C           -1.26497924778354        1.18073234903571       -1.67026959048315
C            0.00497860196514        1.12920282626364       -0.90374983809215
N            0.63282898814543       -0.05016367255889       -0.56730050125537
C            2.00105348583635       -0.03785695441892       -0.16273764014664
C            2.93835992035900       -0.54868622085040       -1.28016116429063
C            4.36281972949474       -0.45004736962994       -0.83329107280003
C            5.08256429763889        0.71383450616371       -1.03082705347432
C            6.39104732610870        0.82106498955831       -0.58567275234270
C            7.01753388030971       -0.22128893580003        0.07700222802112
O            8.31492557153566       -0.16103055960645        0.52972068622362
C            9.10600967564878        0.99605185056645        0.30056441257375
C            6.28016956648140       -1.41826437214431        0.29246864354380
O            6.94241821033185       -2.41670341162743        0.94067364574737
C            6.29021627902525       -3.64293255579038        1.15095414601782
C            4.97123250881826       -1.50957412453221       -0.15845186750342
C           -0.05449527524270       -1.30665633815767       -0.62750956260015
C           -3.87095468159017        3.07711769980314        0.58303215772474
C           -4.50095783617405        2.77608386454849        1.94162959864354
C           -3.39784292808221        4.52936002651161        0.54795750602824
H           -4.65521622547121        0.94522250932920       -1.31591290184330
H           -6.84717344229983        0.25957397786684       -1.80555751395438
H           -7.17039664032319       -1.18492354250940       -2.79490706561091
H           -5.66444037281163       -0.26862472648213       -3.03894308949347
H           -4.88508373399317       -3.71530699275473        2.41121384104746
H           -5.29241774167637       -4.96697346787502        1.21123062143464
H           -3.61184452211754       -4.39619387175107        1.35711851580009
H           -3.07333453607757       -2.21649269810855        2.10362698342908
H           -2.14907406795372        0.02568011253433        2.01185889756614
H           -3.02467502530022        2.39598808755845       -1.88239617764498
H           -1.64433602192599        3.24685791318597       -1.19529586787864
H           -1.80426357806428        0.23516518274230       -1.62522816872564
H           -1.01832708629352        1.38058939243011       -2.72106724093063
H           -0.68575250676492        1.64949416868833        0.65792047971509
H            0.64830680592641        1.99035810666086       -0.95019110754523
H            2.11737084622988       -0.67024255995775        0.72433382863511
H            2.29801954094242        0.97997752340104        0.10491625234875
H            2.77682201443758        0.06202182800741       -2.17032799100540
H            2.67553873534988       -1.58030594647247       -1.51918403326739
H            4.63151674682329        1.54701600004326       -1.54974798687818
H            6.92996909370761        1.73632554640279       -0.76960129869691
H            8.69991776202450        1.88267829355408        0.79603864423098
H            9.24397672892196        1.20969872914465       -0.76346758192220
H           10.07623032894787        0.76364881374614        0.73961814212013
H            7.02070405579424       -4.27469780811421        1.65398570965929
H            5.40893090615457       -3.53390464460491        1.79297463443635
H            5.99500333104846       -4.11703238882142        0.20830506864743
H            4.39760868811778       -2.41497882437757       -0.00884926423959
H           -0.22555018407865       -1.62623084547498       -1.66132206271034
H           -1.02135733646841       -1.24324683184748       -0.11907897060058
H            0.55281272890776       -2.05784573454532       -0.12773266677836
H           -4.64475880949304        2.95576691316511       -0.18421285403734
H           -3.76569458542044        2.90482915230598        2.72868716443709
H           -4.87960190160137        1.75738530961296        1.97687798051673
H           -5.32906846481331        3.45787905042296        2.12071813619065
H           -2.60603363842465        4.68757496234275        1.27361845179767
H           -3.04109539298495        4.81536860549928       -0.43842566672955
H           -4.22922732195530        5.18259690610999        0.80333212973764
H           -0.60964109450067        2.77849810650431        2.73299148444341
