72
 energy: 51.273961325901 xtb: 6.6.1 (8d0f1dd)
N           -1.56559343878851        2.84652204585548        2.26532508678644
C           -1.57117970185422        2.17669433633968        1.20797152054284
C           -2.74428607518637        2.06781939903882        0.27001709374743
C           -3.31304641040728        0.65802201209111        0.34613940267061
C           -4.29153432366344        0.25295544162071       -0.56454004976317
C           -4.84095721804467       -1.01351570730834       -0.51701277849397
O           -5.80402668170519       -1.48111567088052       -1.35559941135530
C           -6.37426727729294       -0.60446849384218       -2.29388029594342
C           -4.40496960774150       -1.93029021066556        0.46632085677502
O           -5.00372874623660       -3.15317266063299        0.43293219354639
C           -4.67218735532902       -4.09253578820856        1.42294884535038
C           -3.43786755037457       -1.52862721281980        1.36692915215793
C           -2.90186658195856       -0.24649427908426        1.30763585948679
C           -2.17766253951241        2.32331958212400       -1.15120086637941
C           -1.28654104724485        1.19050697482337       -1.70211886646390
C            0.03198745312011        1.08969518057570       -1.03956983487699
N            0.62036227207997       -0.07759831358063       -0.65523059190451
C            1.99019484625920       -0.08187238890982       -0.20654170421329
C            2.95903694441844       -0.61237174700314       -1.28996829787140
C            4.38470122945859       -0.56992776402440       -0.79606950561862
C            5.12683733455014        0.58769994797046       -0.95200943635699
C            6.42073218875433        0.66326145438685       -0.46723996720966
C            7.11977273433653       -0.35182794572660        0.20176072825717
O            8.38895379231337       -0.04017917942250        0.58510442037950
C            9.45699652326382        1.56162161296307        0.15909448025565
C            6.31369962467176       -1.57727869695448        0.36285891613382
O            6.85565302873940       -2.65466706480267        1.00574965476966
C            6.10869383175851       -3.83783170399194        1.14025332944336
C            4.99670192325339       -1.64232432114275       -0.12906735406388
C           -0.08280734435998       -1.32943964299075       -0.68919318030217
C           -3.88795838547832        3.07568250761533        0.57912504767090
C           -4.54113550836435        2.78107857960609        1.92838966702712
C           -3.42780985423971        4.53166856594154        0.54052020855514
H           -4.63142148979561        0.94629163911569       -1.31610279878796
H           -6.82921382919931        0.26652885176696       -1.81004351796689
H           -7.15012659149762       -1.17965834216480       -2.79713054110910
H           -5.64085691173078       -0.26794528242747       -3.03481034481937
H           -4.89657420947794       -3.71789201898497        2.42691494908164
H           -5.29415250136723       -4.96241324552507        1.21775027229210
H           -3.61717657655967       -4.38437900081948        1.37111923944951
H           -3.09529287165537       -2.20082843082270        2.13802943095830
H           -2.17029307922598        0.04170029947107        2.04728563315246
H           -3.01328332338462        2.46861747212693       -1.84001333642550
H           -1.59738611224397        3.24598274855984       -1.13880627777210
H           -1.83496351354949        0.25134048810790       -1.64655594497229
H           -1.09683633069302        1.40342498192384       -2.76353873744309
H           -0.69670716494619        1.64046608330062        0.80014764605425
H            0.66167440922121        1.96712201998417       -1.02423079434830
H            2.08188065751911       -0.71262191525343        0.68496906646086
H            2.28079919946244        0.93683898432636        0.06733119287887
H            2.85616577348068        0.02084352088597       -2.17515712737126
H            2.65375708031696       -1.62360331632353       -1.56861432317119
H            4.70576084604578        1.44411372737204       -1.46572623337895
H            6.97684946952858        1.57848238058031       -0.61435071981929
H            9.04195533176909        2.41018769004950        0.66392955924104
H            9.55652412700731        1.71246311797435       -0.89822690902099
H           10.38703372445018        1.25737767521397        0.60349671530262
H            6.77553005268786       -4.53076605379869        1.65117731925345
H            5.20414996838460       -3.71083870519829        1.75019988729864
H            5.82152871836857       -4.27627285673888        0.17549482530456
H            4.38983104490897       -2.55083828275121       -0.02680985788402
H           -0.26244938622308       -1.65067568931880       -1.71887911531221
H           -1.04556407009339       -1.25168553658522       -0.17490142795650
H            0.51491201624922       -2.08744583748223       -0.18530603630850
H           -4.64721099604081        2.94198581829359       -0.20130872450368
H           -3.81936655517109        2.92134768642679        2.72439324188179
H           -4.91434161374397        1.76044532163548        1.96556149599630
H           -5.37560510986616        3.45983990604254        2.08992518819849
H           -2.65005515856891        4.69721992149002        1.27822109696087
H           -3.05638312454688        4.80997592574997       -0.44234039279989
H           -4.26715858576148        5.18157392369042        0.77770069982224
H           -0.70530968347644        2.86333017605252        2.80045370649041
