72
 energy: 12.656064078210 xtb: 6.6.1 (8d0f1dd)
N           -1.53703919408596        2.81966720475046        2.25344320818840
C           -1.56223152889359        2.16046903639607        1.18531724640790
C           -2.74515538108983        2.06431424758341        0.26003522479299
C           -3.31489371104597        0.65471158251920        0.33731078045926
C           -4.29718943885526        0.25030559927277       -0.56892222990293
C           -4.84414103189656       -1.01708490779263       -0.52246302231048
O           -5.81109592114947       -1.48462393403036       -1.35928472270998
C           -6.38262289737875       -0.60615688537458       -2.29438761048264
C           -4.40273936496625       -1.93471962171753        0.45649611719352
O           -5.00119784083530       -3.16014196413015        0.42364350942344
C           -4.66958454757330       -4.09549993705537        1.41646428621561
C           -3.43286246950797       -1.53377303516746        1.35438953046810
C           -2.89746430590203       -0.25158384671088        1.29484576637613
C           -2.18653872866747        2.31469681675546       -1.16491765935270
C           -1.27589911175882        1.18790054700744       -1.69061174545377
C            0.01730404948853        1.11583902789803       -0.97623934787710
N            0.63043066814521       -0.07103777704106       -0.61188900375203
C            1.99556065103746       -0.06428166703022       -0.18612710817054
C            2.95581750919211       -0.58580181938816       -1.28576575467499
C            4.37979549350675       -0.51948221454496       -0.81338390052063
C            5.11084495257261        0.64323223831468       -0.98601219162160
C            6.41225685231199        0.73558148558073       -0.51877752385544
C            7.10283977728296       -0.26939697144691        0.14757349200148
O            8.46755817532709        0.04977861577455        0.53003884942930
C            9.26365424300272        1.27868105360268        0.22281737226293
C            6.32584514959624       -1.49326126327325        0.33985108202986
O            6.90063597353766       -2.54828972949430        0.98054139630293
C            6.18741982117951       -3.75161136707658        1.14517201078052
C            5.00225482539878       -1.57810384538294       -0.13968616299770
C           -0.06835561230740       -1.32099896818649       -0.66264521714456
C           -3.88110309769045        3.07587322035983        0.58039600254988
C           -4.52439538150961        2.77898561768440        1.93386769876844
C           -3.41522335720267        4.53032766648049        0.54422532483978
H           -4.64204171485197        0.94559154414501       -1.31639191392045
H           -6.83694191632832        0.26377089009824       -1.80783376461444
H           -7.15924100647810       -1.18120318875650       -2.79674912724926
H           -5.65105551903349       -0.26763621184983       -3.03630188492198
H           -4.89163897583696       -3.71699501188789        2.41987499937153
H           -5.29334965682196       -4.96517136313396        1.21515582756499
H           -3.61500258584342       -4.38925606231627        1.36446297642875
H           -3.08632531797261       -2.20729970730400        2.12281984652087
H           -2.16182261765108        0.03554517643694        2.03085866925910
H           -3.02162582550451        2.43721148807743       -1.85785396307687
H           -1.61919453890711        3.24620509960191       -1.16354406111386
H           -1.81893894910539        0.24534430800023       -1.63981012819856
H           -1.06333553140623        1.39455955160911       -2.74928289083307
H           -0.69228386204669        1.64132164461454        0.73793408741390
H            0.65690464384251        1.98204650691935       -0.99568771978935
H            2.10209409369364       -0.69745336356633        0.70262148403280
H            2.28717947173672        0.95492072016033        0.08493786404990
H            2.82424252848144        0.03885287769754       -2.17218990595489
H            2.66322423926855       -1.60450128250492       -1.54684474691049
H            4.67412221123672        1.48804038598916       -1.50099694904502
H            6.95358826120027        1.65306754583888       -0.68403050387951
H            8.89299747896695        2.17646866111079        0.71456992651000
H            9.41588326557031        1.48863079668641       -0.83619124314043
H           10.24224679998575        1.04975428579751        0.65415502770431
H            6.88116735961824       -4.42034823989016        1.65330845808987
H            5.29277741545254       -3.63207018541038        1.76855748241030
H            5.89681002654604       -4.20439285735224        0.18948583978907
H            4.40104874702529       -2.48499091090609       -0.02115143438392
H           -0.24580846295228       -1.64099960976708       -1.69485617864429
H           -1.03335156256918       -1.24848508590207       -0.15134061694115
H            0.53246873524763       -2.07732454038577       -0.16059671120970
H           -4.64770620531462        2.94936003470261       -0.19420516356294
H           -3.79545389621303        2.91403956640595        2.72448054611591
H           -4.89966255693552        1.75895759047647        1.97027383853984
H           -5.35607008803248        3.45926362932632        2.10435173900764
H           -2.63113575164058        4.69022269334329        1.27672812604348
H           -3.04930303133578        4.81138323900647       -0.44008001189913
H           -4.25071292293030        5.18271793500729        0.78957947032434
H           -0.66443912986454        2.82318406017329        2.77116468986630
