72
 energy: 5.766764647629 xtb: 6.6.1 (8d0f1dd)
N           -1.52756437783451        2.80893426197250        2.24998388980015
C           -1.55971898690069        2.15781927420052        1.17693606939974
C           -2.74565657975213        2.06336042940218        0.25640013063738
C           -3.31520582725240        0.65341675086382        0.33431974884746
C           -4.29874802672589        0.24945176626938       -0.57074030338185
C           -4.84532481709905       -1.01812625743105       -0.52437151808768
O           -5.81327901816242       -1.48546685965673       -1.36035376319746
C           -6.38558352666006       -0.60647478006400       -2.29445295531979
C           -4.40195516187996       -1.93627692549918        0.45333289176212
O           -4.99979081052781       -3.16187139996667        0.42056405072453
C           -4.66849132601280       -4.09644788958427        1.41437109647694
C           -3.43090861036859       -1.53551588873631        1.35014040365631
C           -2.89549782294474       -0.25331773003376        1.29046824534399
C           -2.18894600586906        2.31190709664997       -1.16948282043769
C           -1.27298855363808        1.18634048330789       -1.68557737658214
C            0.01370098649105        1.12110029477759       -0.95661649995402
N            0.63140567766532       -0.06587672541285       -0.59809234847848
C            1.99770541624510       -0.05791049308688       -0.17967822305408
C            2.95159575434888       -0.57686065396063       -1.28421565626334
C            4.37549857538292       -0.50273284516744       -0.81862913827375
C            5.10361053510699        0.66039070858351       -0.99709136977886
C            6.40608288336919        0.75651020792897       -0.53478058585482
C            7.08088336910481       -0.25728420876253        0.13201238232509
O            8.42835743803277       -0.00296289920330        0.53063078710289
C            9.22198613758500        1.20642697292232        0.24138127534157
C            6.31423231091234       -1.47383569355089        0.32892409366251
O            6.91160576734890       -2.51527367762008        0.97145587675473
C            6.21318452391371       -3.72417063035391        1.14708767550829
C            4.99390717382546       -1.56135544790332       -0.14462928237626
C           -0.06419464553838       -1.31760814117069       -0.65397137783746
C           -3.87871692652777        3.07623728495541        0.58085880877373
C           -4.51815975363265        2.77796790801277        1.93578587743139
C           -3.41065256530880        4.52998564303133        0.54554876949735
H           -4.64561424988248        0.94547597558942       -1.31659833186469
H           -6.83955839939549        0.26306710011566       -1.80693349640411
H           -7.16250616772670       -1.18157640170947       -2.79620738713389
H           -5.65472752840002       -0.26750891672216       -3.03686955900763
H           -4.88973144831969       -3.71665903723361        2.41753069486697
H           -5.29311483110778       -4.96572836878232        1.21408006945205
H           -3.61417967506630       -4.39098125856355        1.36211371481769
H           -3.08326180309139       -2.20930749818047        2.11779103426657
H           -2.15868812282174        0.03335102297155        2.02543588455753
H           -3.02346873161484        2.42646694815538       -1.86391594139316
H           -1.62627258516872        3.24643189763437       -1.17205351831041
H           -1.81475312914496        0.24293830526932       -1.63678994890752
H           -1.05115777162852        1.39098812820787       -2.74255113489813
H           -0.69062008777549        1.64382718702238        0.71684899865780
H            0.65417071377999        1.98575177477820       -0.98463490271133
H            2.10672312581521       -0.69117723715860        0.70845620642183
H            2.29029785394401        0.96101685364854        0.09055106318531
H            2.81282442553837        0.04416982134609       -2.17168485761812
H            2.66638750492096       -1.59897027326320       -1.53931991611102
H            4.66324622129252        1.50248886913933       -1.51244352563453
H            6.94734389347762        1.67317982578115       -0.70398345026922
H            8.84475849362739        2.10266601532860        0.73383403757472
H            9.37179716769078        1.41733441274111       -0.81865152363445
H           10.20019939242438        0.97857249523882        0.67400632267319
H            6.91620834247157       -4.38379567851088        1.65416396163425
H            5.32172053017382       -3.60627018705110        1.77479401486572
H            5.92147566822692       -4.18142394935476        0.19416322435289
H            4.39664894880678       -2.46657833625300       -0.01937752995894
H           -0.24054571786964       -1.63683243056098       -1.68683921163329
H           -1.02955521326236       -1.24753883515998       -0.14325290613117
H            0.53841534061392       -2.07304707380609       -0.15319483532645
H           -4.64764203131442        2.95185572616054       -0.19162839833878
H           -3.78695222327947        2.91111428235213        2.72482457822459
H           -4.89415702081702        1.75819466585331        1.97170722383691
H           -5.34882279706561        3.45862560317200        2.10938277296658
H           -2.62441604309746        4.68832571526715        1.27626736619502
H           -3.04686198085173        4.81235169185123       -0.43920286705150
H           -4.24478673451225        5.18299600941737        0.79385607381523
H           -0.65064826712469        2.81052861422989        2.76199385006067
