72
 energy: 69.478818424473 xtb: 6.6.1 (8d0f1dd)
N           -1.61907316424644        2.90460817716963        2.28517854921959
C           -1.58970084569074        2.19963358869330        1.25203712755567
C           -2.73819460682198        2.06989380581011        0.28903257995556
C           -3.30500604126161        0.65913987663447        0.36151571432457
C           -4.27642841905897        0.25518559211686       -0.55880829541433
C           -4.83638510026436       -1.00702595031367       -0.50941086628544
O           -5.79449837695500       -1.47525744837043       -1.35300376582500
C           -6.35924726017828       -0.59912933394369       -2.29580824347669
C           -4.40795151819222       -1.92340929887630        0.48033835417801
O           -5.00449560456631       -3.14345067385268        0.44055467438087
C           -4.67775611044230       -4.08916240378981        1.42824056156633
C           -3.44870722573669       -1.52073528328048        1.38996286952314
C           -2.90758083998980       -0.24030948752546        1.33287300816250
C           -2.15388193990462        2.33239910585129       -1.12468398362560
C           -1.30680988311153        1.18635331904344       -1.71344523965665
C            0.03675481389663        1.06018834987888       -1.10174668805531
N            0.58197343761476       -0.06632014612737       -0.63081793793591
C            1.95957353580111       -0.09893318460655       -0.22491410551696
C            2.93136644702446       -0.64092736798122       -1.31755693428159
C            4.32861473748369       -0.65405233226266       -0.78900799189627
C            5.13410583076955        0.48478491092062       -0.87811161348383
C            6.39910070054978        0.49602676496486       -0.36733910933025
C            6.99240266886531       -0.62605173939698        0.30840361905674
O            8.13794432226812       -0.56051165562326        0.77843819311420
C           10.09229926906934        2.37787930208524       -0.01051072231811
C            6.11576515889819       -1.80794457463217        0.39833035360306
O            6.65188418111081       -2.89790146399146        1.02950472769269
C            5.88259467888260       -4.06639210680733        1.12132254903383
C            4.84282829093007       -1.77984734687003       -0.13028002367492
C           -0.11266260066343       -1.33125460219723       -0.72371391239280
C           -3.89363726637150        3.07408391205604        0.57822635598021
C           -4.57063431733402        2.78315202506233        1.91721735389267
C           -3.44760781657642        4.53443375620422        0.53637272242438
H           -4.60696224632246        0.94822336958796       -1.31505602210201
H           -6.81331552344911        0.27373892387991       -1.81546427929027
H           -7.13419685513304       -1.17612919114546       -2.79790975363609
H           -5.62246188306397       -0.26734235214636       -3.03542013100988
H           -4.90838246964102       -3.72087665980704        2.43305203575408
H           -5.29751753961610       -4.95785424808741        1.21264883968719
H           -3.62233640354950       -4.37762876055157        1.37951176500804
H           -3.11447205183397       -2.19089792078578        2.16574617373655
H           -2.18328140332899        0.04698919270461        2.07915964352743
H           -2.98178816869409        2.51735587970338       -1.80929217866174
H           -1.54927430016988        3.24026784783586       -1.09063174333380
H           -1.86621260896693        0.25466167795816       -1.65225736175499
H           -1.16545706517127        1.42503632359426       -2.77379372676459
H           -0.70228122214750        1.63506053547865        0.92391093281733
H            0.64636136416179        1.94716664300277       -1.05097234971833
H            2.03997031208064       -0.73326624446435        0.65944247462631
H            2.28161056456472        0.90953628233640        0.03800710446932
H            2.85578533427188        0.01566306583669       -2.18738263026493
H            2.60426099733659       -1.64141381370612       -1.60604606696956
H            4.76086563984316        1.36628668860418       -1.38273272705275
H            7.02142504515843        1.37904409816678       -0.44999956045096
H            9.47771934948007        3.05169036233688        0.53680623230897
H            9.97993137361865        2.31147293000702       -1.06811462599762
H           10.85597035551017        1.82710082478441        0.48327730443458
H            6.49075650552085       -4.80830649690907        1.63661452556106
H            4.96062109044901       -3.92519099739180        1.70105822932732
H            5.61412963601044       -4.47222764865352        0.13754255988105
H            4.20150404116551       -2.65240087394094       -0.06791809621347
H           -0.28339514962463       -1.63163263703062       -1.76127984789481
H           -1.07645415820914       -1.26460894702524       -0.21400285112024
H            0.48620903069137       -2.09754233777309       -0.23917054507695
H           -4.64051698906393        2.92892064771475       -0.21102924744775
H           -3.86577519026456        2.93289991819535        2.72800835529997
H           -4.94146344963150        1.76178421706492        1.95520957415870
H           -5.41182990549307        3.45822558991598        2.05540777180109
H           -2.68263551841462        4.71519785498417        1.28456486756686
H           -3.06501598054441        4.81277996440935       -0.44229855141955
H           -4.29841061013969        5.17486356349310        0.75629145651707
H           -0.77151208614462        2.92600361690904        2.84760477536184
