72
 energy: 70.094685748731 xtb: 6.6.1 (8d0f1dd)
N           -1.63015838870184        2.90636493637626        2.29307228276707
C           -1.59596294411981        2.20410858828561        1.25841149127736
C           -2.74033583417872        2.07083071800489        0.29168092848828
C           -3.30646770679815        0.65972332634795        0.36383599905563
C           -4.27736118507308        0.25530971699580       -0.55699564951960
C           -4.83727018002408       -1.00701125738853       -0.50751839730996
O           -5.79377078695232       -1.47528990945675       -1.35193267534291
C           -6.35767322041170       -0.59946550625023       -2.29512646108228
C           -4.40924329093188       -1.92310614041255        0.48313757324485
O           -5.00492458704331       -3.14258987268178        0.44286625420597
C           -4.67833194044359       -4.08888763768970        1.43052553281561
C           -3.45115284465304       -1.51931105091526        1.39369767881381
C           -2.91032384053138       -0.23874366902925        1.33642481868984
C           -2.15223292401081        2.33512573709471       -1.12052091660633
C           -1.30986269614230        1.18712602015693       -1.71373425185939
C            0.04077454342799        1.05619968490706       -1.11856835170085
N            0.58214342954883       -0.06792996254151       -0.64042434011438
C            1.96152223928743       -0.10300368529410       -0.22852466624241
C            2.94016688427895       -0.64606173327737       -1.31201267753365
C            4.34118356104311       -0.65132506495073       -0.78143265059078
C            5.14754426730298        0.48775861718515       -0.87694762265923
C            6.41215017499641        0.51196962718136       -0.36530564616591
C            7.01642884717812       -0.60304227003086        0.30546545063980
O            8.16483677836785       -0.50835102965629        0.76045087535792
C           10.02213299940375        2.29558056902125        0.00051906873048
C            6.14408711848046       -1.79022621836621        0.39857683729442
O            6.68138169642941       -2.87403946361244        1.03058409730129
C            5.91125446342612       -4.04030830797537        1.12518632608613
C            4.86603664195086       -1.77200696370274       -0.12457826207147
C           -0.11418291079516       -1.33308937922457       -0.73197389408680
C           -3.89662129478366        3.07431842555740        0.57799015525394
C           -4.57612858449087        2.78384973274271        1.91564953553578
C           -3.45139438139401        4.53451091077613        0.53470680119780
H           -4.60585336520561        0.94699577132255       -1.31537363755458
H           -6.81151654825796        0.27343727194072       -1.81500604064155
H           -7.13246610546103       -1.17587804833777       -2.79767854605274
H           -5.62010745080459       -0.26819615723750       -3.03422717443211
H           -4.90938523712528       -3.72117178308291        2.43543985077646
H           -5.29743243918992       -4.95780633279853        1.21415560895714
H           -3.62267810723263       -4.37643890315041        1.38203402723934
H           -3.11736222800939       -2.18847069844761        2.17064063278244
H           -2.18678114688883        0.04838394565690        2.08369822598789
H           -2.98066458600307        2.52661139127702       -1.80306172374018
H           -1.54617959132376        3.24125398766637       -1.08280850317398
H           -1.87154401299463        0.25623953364707       -1.65294895910643
H           -1.17548845692411        1.42749860914562       -2.77509934293068
H           -0.70611511522391        1.63900719239149        0.94063897647447
H            0.64570811901273        1.94591548395426       -1.06163031785681
H            2.03642887214957       -0.73711259453853        0.65539048484398
H            2.28094758735306        0.90527950005290        0.03496527347010
H            2.86655318667367        0.00848215035714       -2.18400720321234
H            2.61696674184012       -1.64755717901556       -1.60169308945568
H            4.77190522660457        1.36518301873261       -1.38571668520993
H            7.02558451139182        1.40276419856936       -0.45647693847268
H            9.42830969521934        2.97965655248355        0.54308585895007
H            9.92638326138171        2.24528316461561       -1.05197707503118
H           10.79452704372582        1.76526333885903        0.49011798950702
H            6.52614627287396       -4.77554181144152        1.64064248599424
H            4.99076335597226       -3.89773495175155        1.70737749325919
H            5.64053329561009       -4.44783042110776        0.14257444175436
H            4.22661903339109       -2.64724214176070       -0.05989659590346
H           -0.28685502586606       -1.63698679505282       -1.76797653913371
H           -1.07790697331049       -1.26393160339302       -0.22254601866594
H            0.48179119484544       -2.10102205058834       -0.24624520407698
H           -4.64093625749489        2.92673765651510       -0.21276170194226
H           -3.87267393117051        2.93456079492598        2.72752954519646
H           -4.94634652419076        1.76221861658126        1.95369464804690
H           -5.41804531318453        3.45840497667245        2.05309731622605
H           -2.68819233002624        4.71642568727818        1.28446309896903
H           -3.06693619500429        4.81220422413716       -0.44331354899288
H           -4.30289009475353        5.17504536753528        0.75150094785260
H           -0.78469170950631        2.93602695660266        2.85787303914445
