72
 energy: 68.859240209873 xtb: 6.6.1 (8d0f1dd)
N           -1.60955732142549        2.88162103014620        2.28792969056417
C           -1.58450453629126        2.19888183168495        1.23947293923575
C           -2.74025348394255        2.07090629714727        0.28362439711564
C           -3.30694839351108        0.65967092780946        0.35727433527493
C           -4.28026813949510        0.25540476687791       -0.56058480429216
C           -4.83749410615235       -1.00821374648978       -0.51164172093255
O           -5.79756492380468       -1.47566143759624       -1.35318720300938
C           -6.36427335159886       -0.59999294900538       -2.29512019076094
C           -4.40681691580493       -1.92539249983763        0.47626406968945
O           -5.00305167904906       -3.14571312120081        0.43773530922141
C           -4.67696734494931       -4.09046993530474        1.42635977986751
C           -3.44521444750723       -1.52282729261547        1.38358755016795
C           -2.90542643847805       -0.24187533055956        1.32551739033001
C           -2.16331093452061        2.33155370104902       -1.13360957640820
C           -1.30617219130483        1.18740687531022       -1.70910863847890
C            0.02447814567915        1.06971850069012       -1.06667738279772
N            0.59041048214123       -0.06602768993694       -0.64679865919323
C            1.95877306236187       -0.09015329266150       -0.22535704981849
C            2.92464762773173       -0.62894738507693       -1.32392663714624
C            4.31772665929151       -0.65384901859441       -0.79868423218337
C            5.13815777859594        0.47492844037148       -0.88533767716550
C            6.40060939851882        0.47568154623018       -0.36216210219030
C            6.95606176474428       -0.65915513385828        0.31880064594841
O            8.09420386551228       -0.66132130775444        0.80958530405889
C           10.22769310295197        2.53484512076606       -0.02787176454872
C            6.06812900991088       -1.82474528147617        0.39294236501898
O            6.62540136600380       -2.89327781419858        1.02178956541363
C            5.89587675450082       -4.08240171306881        1.13660188602412
C            4.80352973754662       -1.79175249549625       -0.13958111537666
C           -0.10471633690027       -1.32870919094361       -0.71862156634981
C           -3.89199700139710        3.07548801056797        0.57829947342851
C           -4.56169860066877        2.78278117669094        1.92009900667994
C           -3.44098431753578        4.53407723088752        0.53695733839242
H           -4.61383967029048        0.94853127625163       -1.31539730980096
H           -6.81873986440153        0.27247041269595       -1.81430256230042
H           -7.13929038326309       -1.17707129554711       -2.79705279890015
H           -5.62870818671884       -0.26711444097291       -3.03551926156141
H           -4.90604878946560       -3.72056324087694        2.43093840800467
H           -5.29802625281091       -4.95890616861810        1.21286843662186
H           -3.62202809711916       -4.38096056795868        1.37736504664453
H           -3.10940651917966       -2.19355815713531        2.15848245147630
H           -2.17926688684093        0.04562780374568        2.07011896798556
H           -2.99266260796948        2.50619574468647       -1.81971313437875
H           -1.56291326378506        3.24209838076197       -1.10550488094275
H           -1.86300762257267        0.25357094375540       -1.65175930347040
H           -1.14796139937398        1.41758485610877       -2.77110694127117
H           -0.69666446999760        1.64887237251890        0.88283298233321
H            0.64127265113471        1.95375877005265       -1.02892582168766
H            2.04869770857299       -0.72567254653762        0.65850745514107
H            2.27534725162174        0.91927137973516        0.04244079499412
H            2.84809131436672        0.02839716362623       -2.19206599008683
H            2.60116692436070       -1.63075275943380       -1.61120967405341
H            4.76789080228504        1.35539653559673       -1.39591234174883
H            7.03952694425222        1.34314974239788       -0.44379215278128
H            9.58921848768132        3.18310053589526        0.53206976211901
H           10.09034887566887        2.42736027713817       -1.08119411912330
H           10.94060650678059        1.92400657948864        0.48005420976070
H            6.55259246187148       -4.78246331576238        1.65177041659411
H            4.98228460241806       -3.94490698764022        1.72792827708643
H            5.63031278460488       -4.49265440403254        0.15496721677344
H            4.15978967141890       -2.66055597147477       -0.08030415930143
H           -0.27890405208652       -1.63716592209895       -1.75283082177114
H           -1.06761487811387       -1.25866429533194       -0.20680175769173
H            0.49477257820239       -2.09080699448716       -0.22687572590857
H           -4.64194444340537        2.93358564536235       -0.20872645636778
H           -3.85198201677733        2.92938305112695        2.72695856396962
H           -4.93284709780292        1.76149387905574        1.95735727498151
H           -5.40098921606108        3.45878443389866        2.06474493104787
H           -2.67219865638995        4.71124994486835        1.28215486337922
H           -3.06158460853979        4.81241430998228       -0.44292860503408
H           -4.28847516948247        5.17711143777012        0.76158268562158
H           -0.75339451108533        2.90521360778166        2.83669667598799
