72
 energy: 0.483104019212 xtb: 6.6.1 (8d0f1dd)
N           -1.51818828478830        2.79869507080638        2.24667229288067
C           -1.55739964960056        2.15588924344984        1.16877157653453
C           -2.74604465329669        2.06247034787951        0.25294442251719
C           -3.31522837272861        0.65201286401244        0.33152402621179
C           -4.29988746697361        0.24847129463761       -0.57255259967509
C           -4.84617706123677       -1.01927370865467       -0.52622129112205
O           -5.81505488032674       -1.48647216116483       -1.36142585939022
C           -6.38821256492041       -0.60703708779660       -2.29456912253529
C           -4.40092397332676       -1.93790243689906        0.45036415901872
O           -4.99786347160346       -3.16360111044626        0.41760431384261
C           -4.66736194431314       -4.09737613222183        1.41262142232424
C           -3.42867010880685       -1.53738694138812        1.34606299310121
C           -2.89325989705279       -0.25515133843513        1.28631653304635
C           -2.19077207336875        2.30915014680980       -1.17373473915103
C           -1.26983516637311        1.18479632971260       -1.68020050552404
C            0.01044296206947        1.12591991718721       -0.93667832478640
N            0.63201059001302       -0.06013633697293       -0.58460260736384
C            1.99967643294855       -0.05135873630788       -0.17340988652601
C            2.94707943575957       -0.56780166337468       -1.28292484695972
C            4.37120855538886       -0.48549072765283       -0.82433598637091
C            5.09652561418029        0.67796972341676       -1.00866741396524
C            6.40043744497137        0.77781564982010       -0.55117611595064
C            7.05898179567241       -0.24554170454663        0.11515439113749
O            8.39030105203900       -0.05598584906348        0.53186478880953
C            9.18140721377182        1.13554220827385        0.26107734108095
C            6.30215885872121       -1.45515199936066        0.31715957219355
O            6.92190950233821       -2.48253311577521        0.96151224194173
C            6.23886875986305       -3.69730192521187        1.14850039465418
C            4.98552399535577       -1.54427458077380       -0.14976076418503
C           -0.06051388139601       -1.31384484242288       -0.64489730586898
C           -3.87627342319277        3.07669848296396        0.58145954447832
C           -4.51213321465629        2.77732723195158        1.93773522466988
C           -3.40619926080053        4.52973969567529        0.54644239108664
H           -4.64884211297647        0.94527273855913       -1.31674235558680
H           -6.84194835478050        0.26209202229574       -1.80616177750450
H           -7.16537128706225       -1.18229515233004       -2.79570144242618
H           -5.65807588284620       -0.26763121701632       -3.03749564472015
H           -4.88802635504998       -3.71613552468051        2.41539191116321
H           -5.29289935669391       -4.96620298113518        1.21326861509591
H           -3.61335967539905       -4.39277233554472        1.36038422715231
H           -3.07991702863534       -2.21148700192585        2.11288302475318
H           -2.15533683142176        0.03099005959753        2.02032223344245
H           -3.02411896614171        2.41604415446509       -1.87012773846852
H           -1.63263195166242        3.24653860220648       -1.17995480218218
H           -1.81025809564022        0.24046583164831       -1.63327496653414
H           -1.03917102775262        1.38767307391158       -2.73532313200872
H           -0.68896447809389        1.64657790244231        0.69645322846004
H            0.65208668860228        1.98884960153775       -0.97255627158656
H            2.11116509146870       -0.68435721315208        0.71426294256038
H            2.29364044572025        0.96725641700789        0.09563036747904
H            2.80059157456439        0.04945696410156       -2.17142077823125
H            2.66926433390461       -1.59330008649083       -1.53199654311862
H            4.65249918408681        1.51726596304247       -1.52475403823061
H            6.94118510015635        1.69388575248783       -0.72493327981955
H            8.79592332789313        2.02930340285620        0.75423602661436
H            9.32763502321825        1.34767121678296       -0.80006854130904
H           10.15812558630758        0.90793843535839        0.69506690305908
H            6.95117103634133       -4.34765379670200        1.65432545705223
H            5.35075934714678       -3.58209087204266        1.78084718008304
H            5.94598356034195       -4.15989539637437        0.19886617820320
H            4.39438407821949       -2.44851398886527       -0.01655371037592
H           -0.23551456599191       -1.63247454856863       -1.67839032576825
H           -1.02637889317124       -1.24637342106933       -0.13495170251067
H            0.54365537171493       -2.06850244808414       -0.14522381120207
H           -4.64725844528952        2.95393956785777       -0.18898835153935
H           -3.77901742162850        2.90878233578669        2.72553153794471
H           -4.88895668951507        1.75786841386754        1.97333162756210
H           -5.34183742905896        3.45838495624163        2.11383315400883
H           -2.61789873940625        4.68744651714289        1.27531835836383
H           -3.04471805423892        4.81323895517820       -0.43886612994984
H           -4.23918012624060        5.18313187889064        0.79736234001642
H           -0.63687112241458        2.79877040026514        2.75303328738657
