72
 energy: 70.688258602359 xtb: 6.6.1 (8d0f1dd)
N           -1.62662898045944        2.90109129422743        2.29365959721947
C           -1.59534079126639        2.20483019472537        1.25632972775037
C           -2.74219060517463        2.07227152937915        0.29111051388897
C           -3.30817759101472        0.66102350578359        0.36352883923434
C           -4.27900094246737        0.25573444264882       -0.55702265406088
C           -4.83692793228943       -1.00716451685358       -0.50660871743738
O           -5.79340151211579       -1.47532205352916       -1.35078899410507
C           -6.35866895353102       -0.60011453797688       -2.29357697867206
C           -4.40931156437211       -1.92315526473969        0.48413096518151
O           -5.00488997917355       -3.14198308133258        0.44549347575777
C           -4.67765070836092       -4.08887757393656        1.43267176796149
C           -3.44854404087857       -1.52000808070041        1.39130303056875
C           -2.90954197706032       -0.23880409890931        1.33370938527452
C           -2.15560550954114        2.33569194556328       -1.12207122402642
C           -1.30935264289192        1.18849526036372       -1.71505466330466
C            0.04530392372351        1.05066063016936       -1.12954425542566
N            0.58605770673340       -0.07096686930063       -0.65239573445542
C            1.96480189113970       -0.10470634191800       -0.23171386828526
C            2.94712946685936       -0.65058013840644       -1.30773900440396
C            4.35240151144371       -0.64687228195090       -0.77852777643198
C            5.14896234417607        0.49817975839592       -0.88641550390899
C            6.41677291904271        0.53035890413331       -0.37585448220454
C            7.03520370071850       -0.57512594986995        0.29659974420188
O            8.18664436447336       -0.44973726143790        0.73543815540770
C            9.95264221334730        2.20995611875400        0.01658392117653
C            6.17176332847418       -1.77030852774165        0.39677077133344
O            6.71041158833297       -2.84887163645183        1.02982269895748
C            5.93951123819793       -4.01356475566602        1.12820591654268
C            4.88931407117562       -1.76221246659806       -0.12090519944871
C           -0.11074054408886       -1.33493183948825       -0.73517850213524
C           -3.89868806631538        3.07503504724381        0.57701257882308
C           -4.57355408498655        2.78379404938698        1.91651492665734
C           -3.45131785432840        4.53423085526385        0.53330940966094
H           -4.60950817795872        0.94659947301955       -1.31539777445792
H           -6.81364325845110        0.27263284911773       -1.81361648300347
H           -7.13348336790772       -1.17625228630256       -2.79688679516370
H           -5.62127196974159       -0.26845227226127       -3.03264403042036
H           -4.90798588320397       -3.72117815999049        2.43767060180378
H           -5.29690008915718       -4.95773049098840        1.21572964993324
H           -3.62193119037914       -4.37654980860216        1.38360031555585
H           -3.11384739668682       -2.18961587994233        2.16747261759899
H           -2.18606174107875        0.05036021609034        2.08048696827981
H           -2.98708922927789        2.52554082417974       -1.80411091889351
H           -1.55182227011028        3.24221723675197       -1.08959013229826
H           -1.87043303755527        0.25767053414216       -1.65286567532397
H           -1.16933058868463        1.42374619913893       -2.77856923808705
H           -0.70630532786689        1.64302692645181        0.92357863607123
H            0.65221235219016        1.93897572779374       -1.06541139574063
H            2.04078518612172       -0.73581420058435        0.65585985600607
H            2.27681623248255        0.90639006764352        0.03582655205540
H            2.87649560188251        0.00172065001503       -2.18196251702670
H            2.62638605184301       -1.65331365288569       -1.60070749003318
H            4.76317244231353        1.37262153149591       -1.39718951784610
H            7.01960275955712        1.42701862986434       -0.47520554811268
H            9.37269260077843        2.90258513392114        0.55915816698431
H            9.87506232352132        2.17469861368619       -1.03495450934466
H           10.73534950432044        1.69550108408860        0.50319786461360
H            6.56044769905982       -4.74290386726869        1.64356651755492
H            5.02058902621298       -3.87027688438301        1.71284700579671
H            5.66630788893149       -4.42344888413234        0.14721350281360
H            4.25373687280000       -2.64181780516129       -0.05346815458944
H           -0.28778403525665       -1.64543614500313       -1.76901323940425
H           -1.07352469241498       -1.26031771418985       -0.22441368465030
H            0.48367539377704       -2.10011082562558       -0.24009837521785
H           -4.64370821961391        2.92693541147258       -0.21355883987724
H           -3.86773291873619        2.93408581733573        2.72526905018140
H           -4.94316935615848        1.76201018555072        1.95439240208689
H           -5.41384007949489        3.45889378348308        2.05857604441680
H           -2.68687863037703        4.71316862995479        1.28188741693662
H           -3.06800578688916        4.81090483962012       -0.44528929558990
H           -4.29939264661674        5.17753368153229        0.75350190903260
H           -0.78757451225751        2.93924056471948        2.86430733259004
