25
 energy: 105.394650157389 xtb: 6.6.1 (8d0f1dd)
C            3.29248681884456        1.17738350647857        0.04870486897809
N            2.32833848751930        0.10342070716949        0.03284804501654
C            2.68302638978009       -1.17404981476004       -0.01090112999037
N            1.58866252277269       -1.94981703150207        0.04469164977669
C            0.42701609152065       -1.11519550395725        0.12905771173877
C            0.97044708875488        0.20737760412909        0.12190252940502
C            0.19345383439820        1.45841328515211        0.11017202212220
O            0.75324009240996        2.56559296046107        0.07100897781074
N           -1.11659608586470        1.23915645328692        0.09634040525333
C           -2.05358514022150        2.29227078594464        0.18967425268726
C           -3.28437101272908       -0.58410623384835       -1.61471405634292
O           -4.34715226039196       -0.27699345836231       -1.40099854871298
N           -0.78144836736383       -1.46312280461534        0.28769263508803
C           -1.32925191695358       -2.77374665423858        0.24892021149356
H            3.78152650836331        1.23237637637543        1.02303432969594
H            4.05201335656141        1.00480040850088       -0.71524984270159
H            2.76597120404131        2.11461734142145       -0.13032993057625
H            3.69768932059690       -1.52130776137016       -0.04722637042480
H           -1.58118046444643        3.27409687082435        0.26389175836925
H           -2.71055864411533        2.25289704468781       -0.69205158607750
H           -2.67783780881344        2.12871601756873        1.07847240658716
H           -0.78280828303648       -3.48724761585940        0.87329893739851
H           -1.34636460580530       -3.15435802597822       -0.77633077285136
H           -2.35558394454457       -2.66945999135201        0.61680514348623
H            1.57321612440497       -2.95336508720661        0.00941249611445
