25
 energy: 103.753637357270 xtb: 6.6.1 (8d0f1dd)
C            3.32499858494863        1.18822914507744        0.04512597280791
N            2.37113094902564        0.10634805065113        0.04162316891996
C            2.70341662910724       -1.17805269335813        0.00825440699778
N            1.58956524806087       -1.93269388830490        0.04862643902489
C            0.45618364957288       -1.08261224944672        0.10898099141357
C            1.01260758054214        0.23091896223652        0.10283777497047
C            0.25979969473161        1.49655948749166        0.10654438374882
O            0.82285348562497        2.60195286399020        0.04295399538818
N           -1.03842486406889        1.27185342257663        0.17216086997461
C           -2.02823128778424        2.27806933859910        0.17829615283563
C           -3.80465824037931       -1.16835633473820       -1.37215037767817
O           -4.16182943850200       -0.10888677197653       -1.22108910360674
N           -0.77840885107180       -1.38518525090113        0.15924127406995
C           -1.32584161135206       -2.69793589499260        0.18491025366172
H            3.81401094878294        1.25431074541280        1.01860812286906
H            4.08134302199468        1.02423781155490       -0.72195631280179
H            2.78763126177138        2.12113088451425       -0.14139142677613
H            3.70445899771513       -1.55670355422075       -0.04659264384278
H           -1.61484386584985        3.29247880453839        0.22065445681827
H           -2.64345328690762        2.17856949554759       -0.72270917268862
H           -2.68370362212242        2.11212747608623        1.03963739543981
H           -0.81714516120061       -3.37709281182276        0.88140956146272
H           -1.31718001994257       -3.14630826394436       -0.81477542058733
H           -2.36967998691558       -2.59613394567112        0.48724629423152
H            1.56761448918794       -2.93779604015423        0.02058685554223
