25
 energy: 105.138719109703 xtb: 6.6.1 (8d0f1dd)
C            3.29814993890440        1.18114792668471        0.03994124976767
N            2.34063367919110        0.10399447456058        0.03673243676682
C            2.69442285871190       -1.17557444497394       -0.00785368429317
N            1.59427813090436       -1.94746778996836        0.04739075660490
C            0.43906407782736       -1.10830431799090        0.12412577812593
C            0.98317712009253        0.21046598304272        0.11583210485264
C            0.21557752451644        1.46440121866772        0.11180112888975
O            0.76847542093858        2.57505139164274        0.05868623405927
N           -1.09285808817777        1.24339319296026        0.12901834708973
C           -2.04088785035893        2.28557292162188        0.18720158653622
C           -3.41759612088600       -0.65236732244884       -1.58270478446779
O           -4.43704568551186       -0.26911193029398       -1.29224148809774
N           -0.77158602237155       -1.45488414720485        0.25212976865145
C           -1.31943391922981       -2.76686180149394        0.22741210318992
H            3.79045121122154        1.23956707138136        1.01199425190546
H            4.05619697967369        1.01125406832413       -0.72586101546476
H            2.76219628272270        2.11496170016361       -0.13680953327421
H            3.70992967086024       -1.52591677856948       -0.05021532425632
H           -1.59196639393496        3.28401585046653        0.25019774956136
H           -2.68765531900583        2.23141300108169       -0.69462017127052
H           -2.67640994249661        2.12740470396203        1.06620027144661
H           -0.82585265136202       -3.47573847411068        0.89956100269623
H           -1.30016128146188       -3.16221136916571       -0.79059745574036
H           -2.35195423835831       -2.66393581994563        0.55230129286552
H            1.58431518516381       -2.95036793645264        0.02148240390139
