25
 energy: 104.558687706816 xtb: 6.6.1 (8d0f1dd)
C            3.31811226552989        1.19269991760438        0.05241579713413
N            2.37643392862296        0.10123694546165        0.03855418557044
C            2.71139440673716       -1.17986860129781        0.01667428937615
N            1.60262681381203       -1.93829111134505        0.05696072104430
C            0.46907477548771       -1.09517761360728        0.09817108713731
C            1.01785255946969        0.22431966727448        0.07879318294052
C            0.25945313182461        1.49216975625813        0.07852960491123
O            0.79903235344573        2.60894664431249        0.01931328015209
N           -1.02952378427208        1.22318136646248        0.17847183209460
C           -2.01631173292585        2.24132329916876        0.17225437941545
C           -3.66215088759752       -0.99837628780057       -1.36500903869555
O           -4.36168334167864       -0.12776744335219       -1.21353259004173
N           -0.76662187282964       -1.39261229445677        0.07909990431882
C           -1.31896792893048       -2.70497590984456        0.17393082770542
H            3.80205878166595        1.25861353350432        1.02805240793169
H            4.07700657902301        1.03394287725026       -0.71236600040377
H            2.77304727834532        2.12104248110051       -0.13501844647391
H            3.70839079280614       -1.56020096843687       -0.03121786424657
H           -1.59660185090071        3.25318010578966        0.21087957499507
H           -2.63220895761666        2.16531752913588       -0.73192995543548
H           -2.67262728035594        2.08798109789451        1.03540922493142
H           -0.84779439622807       -3.36071467491292        0.91157533992057
H           -1.27716660509078       -3.19277752002574       -0.79917522141595
H           -2.36866335042638       -2.58557409522189        0.43676517693089
H            1.59925540748991       -2.94296314389720        0.04493753580646
