  72
        -99.30521204
 N         -1.8062896437        2.4896991032        2.5335448025
 C         -1.7662512763        1.9785867092        1.3946951886
 C         -2.8992217609        2.0099929295        0.4021525766
 C         -3.4247706739        0.5836087904        0.3538637031
 C         -4.4883618642        0.2392743632       -0.5203967638
 C         -5.0238368865       -1.0462981033       -0.5322025048
 O         -6.0278171499       -1.4583439401       -1.3510981975
 C         -6.6342671600       -0.5242082583       -2.2129985908
 C         -4.5400699906       -2.0239986014        0.3441840802
 O         -5.1410919276       -3.2188684401        0.3194505974
 C         -4.7379112418       -4.2311442869        1.2109372521
 C         -3.4074625401       -1.7212615992        1.2736355337
 C         -2.8537458737       -0.3629373896        1.1374292596
 C         -2.3265170152        2.4273369563       -0.9726601347
 C         -1.4280646411        1.3674636863       -1.6340976725
 C         -0.0888170578        1.2626569731       -1.0138004519
 N          0.5346139111        0.1308674587       -0.7120265865
 C          1.9209263811        0.1348753444       -0.3132861439
 C          2.8450980073       -0.3092042921       -1.4633227718
 C          4.2782927819       -0.2201188339       -1.0202496543
 C          4.9698597472        0.9761122347       -1.1155543685
 C          6.2787465705        1.0764573277       -0.6703963162
 C          6.9219571877       -0.0206208192       -0.1161227417
 O          8.1856897930       -0.0375695670        0.3488708368
 C          8.9593881556        1.1375626128        0.2741679528
 C          6.2204530403       -1.2531071844       -0.0148378124
 O          6.9209345800       -2.2689679063        0.5299579016
 C          6.3201279327       -3.5365673486        0.6419859599
 C          4.9114532269       -1.3284525610       -0.4633481072
 C         -0.1434280446       -1.1402773231       -0.7663802350
 C         -4.0502066633        2.9734640736        0.8071419445
 C         -4.7513548734        2.5125564667        2.0829927704
 C         -3.5813130757        4.4167840610        0.9740002828
 H         -4.8845200706        0.9894447557       -1.1838931860
 H         -7.0792975879        0.3067546625       -1.6573305148
 H         -7.4200400741       -1.0739000944       -2.7272644298
 H         -5.9247243664       -0.1361646595       -2.9513851378
 H         -4.8603312398       -3.9212137570        2.2530430311
 H         -5.3899729292       -5.0784381307        1.0078237419
 H         -3.6976954375       -4.5273130092        1.0433804453
 H         -2.6198986585       -2.4800646339        1.1597612526
 H         -3.7567674972       -1.8324295736        2.3125990902
 H         -3.1585465407        2.6314318042       -1.6467813247
 H         -1.7597338909        3.3513574511       -0.8555917667
 H         -1.9444892860        0.4094667194       -1.6478251709
 H         -1.2805045650        1.6840194257       -2.6748471905
 H         -0.8790975418        1.4691114366        0.9805837881
 H          0.4885832001        2.1708650894       -0.9243271432
 H          2.0530792944       -0.5368741131        0.5392620284
 H          2.2053720548        1.1416746559       -0.0012798304
 H          2.6774838383        0.3454374885       -2.3203099538
 H          2.6021563434       -1.3312342341       -1.7562871376
 H          4.4942411267        1.8420923772       -1.5504244689
 H          6.7928036655        2.0188602089       -0.7635636259
 H          8.5146445142        1.9478925249        0.8599657626
 H          9.0918026261        1.4648098945       -0.7614415665
 H          9.9277182712        0.8767203633        0.6967077522
 H          7.0776939310       -4.1808656448        1.0838489170
 H          5.4432507393       -3.5091901768        1.2970905671
 H          6.0342783771       -3.9334645166       -0.3371741773
 H          4.3717116006       -2.2600741790       -0.3953237834
 H         -0.3887966216       -1.4177815924       -1.7934477286
 H         -1.0675269830       -1.0821502288       -0.1805182839
 H          0.4974660843       -1.9087881583       -0.3422844030
 H         -4.7829610155        2.9504137330       -0.0082875578
 H         -4.0516819556        2.5219236457        2.9123756764
 H         -5.1525732570        1.5081217310        1.9720196321
 H         -5.5730885845        3.1863463873        2.3113721036
 H         -2.8287495760        4.4790930751        1.7538726215
 H         -3.1761361725        4.8218791371        0.0504704684
 H         -4.4253513739        5.0361865812        1.2659863969
 H         -0.9826738020        2.4040418199        3.1202129117
