25
 energy: -42.138977337946 gnorm: 0.006500250604 xtb: 6.6.1 (8d0f1dd)
C            2.96051819149810        1.73965636232931       -0.09954414913149
N            2.32197719246356        0.68982040842426        0.18170771921904
C            2.69944134644238       -1.96045667509409       -0.17198218061269
N            1.41627004113451       -1.95372611484767        0.06815055024706
C            0.54851222060906       -0.88965997016945        0.01822640135625
C            1.01889369354543        0.41302051548747        0.04897733685458
C            0.04666896665151        1.53553055382217        0.12941950062362
O            0.41663566595695        2.68244000855551        0.19206017843671
N           -1.27107259666792        1.15884208881180        0.07800256685161
C           -2.28999934694394        2.20174590128868        0.03774827378329
C           -1.75433379949831       -0.13338922234858        0.02899399091699
O           -2.92467146108117       -0.38526796139204       -0.01325401699062
N           -0.79063486815001       -1.15575414044856        0.03284872732818
C           -1.28704063385599       -2.51945661030703       -0.00511295532378
H            3.19270350188134       -1.14629304231417       -0.66288326669475
H            3.95608246620312        1.84788634874486        0.31564783487125
H            2.58103297355311        2.53562629838852       -0.74102845433710
H            3.27203527813414       -2.82655670404619        0.11937589819571
H           -1.80107184289705        3.16492395934132        0.15417606639507
H           -2.81862102389833        2.15800287507899       -0.91420783914704
H           -3.00823508852621        2.03832775922175        0.83925940689816
H           -1.09249562814632       -3.03715443767426        0.93683913041792
H           -0.86608565515761       -3.06862248714399       -0.84751867574197
H           -2.36841282380638       -2.45967498702105       -0.13492108825005
H            1.00233474465654       -2.81157218508683        0.44019066173625
