72
 energy: 97.846725346668 xtb: 6.6.1 (8d0f1dd)
N           -1.60801374754073        2.94835293389896        2.17567778854463
C           -1.70226689335234        2.22215933524130        1.15988551147430
C           -2.93142141530824        2.10541166435453        0.29796236812152
C           -3.45024949564288        0.67879499304251        0.35816327314334
C           -4.44111539340841        0.25918739010531       -0.52924023061366
C           -4.96308273236183       -1.01744322093308       -0.47372095653602
O           -5.93363273164706       -1.49777707452243       -1.29452318125721
C           -6.53479345063196       -0.61724486720844       -2.21044929377118
C           -4.48642274062472       -1.92742187320833        0.49507978457369
O           -5.05590035522521       -3.16058737746959        0.46909167151889
C           -4.71950421723070       -4.08082706334272        1.47798023987990
C           -3.50652278609288       -1.51057876637801        1.37351918404240
C           -2.99790615823760       -0.21995655928840        1.30477891426361
C           -2.48376470473931        2.45956946206645       -1.14995508141744
C           -1.60078541555436        1.40812186601341       -1.85643829493914
C           -0.21432634630917        1.35843279479585       -1.31020673324469
N            0.49466350321294        0.23731416053279       -1.09919653870996
C            1.97397372921980        0.26851631042720       -0.92926182408192
C            2.74733339811665       -0.10780174521898       -2.15289538917964
C            4.71999529460039       -0.99669612391543       -0.52612946328995
C            5.34466284259908        0.19724003002394       -0.81146313063445
C            6.64312296905456        0.45685922107029       -0.40535773938457
C            7.33907729928220       -0.50170267062533        0.28623699375372
O            8.64215633953468       -0.37676268503957        0.68887218065050
C            9.32322209151609        0.80066064245705        0.33574493911884
C            6.70030173987574       -1.71326203525371        0.62956074112979
O            7.48710633272342       -2.55068988198958        1.36751560932565
C            6.99960120580170       -3.80210837062189        1.74542226207852
C            5.39037240396757       -1.95340221171973        0.22493644279896
C           -0.09986922061605       -1.09114497410606       -1.20025454126853
C           -4.09298741892008        3.04868386023278        0.73459169101767
C           -4.58329794165432        2.69139280249939        2.13517948289518
C           -3.70137230830353        4.52305423584273        0.68883579656114
H           -4.81510963649452        0.95058041722403       -1.26515654166892
H           -6.98464033107603        0.24261751227973       -1.70171259650938
H           -7.31703734781426       -1.19551446184490       -2.69862325624531
H           -5.81986086937733       -0.26850443331870       -2.96448952116622
H           -4.93264025921265       -3.67293438715061        2.47195611533330
H           -5.34613462902425       -4.95386838992638        1.30092697877974
H           -3.66730193452786       -4.37817451120245        1.42545972397233
H           -3.12542469297235       -2.18019886690158        2.12670355444996
H           -2.24702116047561        0.07604847686059        2.02020803685182
H           -3.37904869497400        2.61519048408493       -1.75004233242984
H           -1.95426385981714        3.41278352885488       -1.11854235993951
H           -2.08944434310950        0.43959944078066       -1.76937603365809
H           -1.54939789292428        1.64306283350531       -2.93330001593864
H           -0.85772524194176        1.63969743904276        0.75850554708279
H            0.29397900750846        2.30888057390155       -1.30808179287798
H            2.18874487571603       -0.36293215635742       -0.07068538650563
H            2.21106448615953        1.28583912727243       -0.63399207065620
H            2.78950667731544        0.65235294461883       -2.95981775250670
H            2.67353224623087       -1.13521946486972       -2.48731716780791
H            4.85640400071674        0.96969867714463       -1.35876502026700
H            7.10411983179327        1.39213864971925       -0.66647724978358
H            8.85601767814618        1.69259219254064        0.77370977608396
H            9.38604779595194        0.92715987535971       -0.75156802208006
H           10.32963686226129        0.69037869575978        0.73569750154976
H            7.84968953789354       -4.26618668518197        2.24237290862630
H            6.16323444499180       -3.71938255529213        2.44992772431315
H            6.70223477863862       -4.42098700318349        0.89146686097213
H            4.92255323621781       -2.87554417573267        0.52872812499420
H           -0.36400120739034       -1.33741403651710       -2.22829936520025
H           -1.00758894983404       -1.15075465617498       -0.59757601459006
H            0.59947066511275       -1.85456830225239       -0.86341248231275
H           -4.92349041201817        2.88625055227575        0.03520228666989
H           -3.78730911324288        2.85546481743495        2.85452534943144
H           -4.89417603642486        1.65082714602685        2.18236562560054
H           -5.43047900477926        3.31989068614573        2.39604979103205
H           -2.85921710564706        4.70201576211977        1.34969560362776
H           -3.44017151632372        4.83949805142804       -0.31766539187565
H           -4.53624740909875        5.13152159976349        1.02718486347310
H           -0.69587216582630        2.98346958161362        2.60325160222169
