72
 energy: -2.862404363931 xtb: 6.6.1 (8d0f1dd)
N           -1.53541313793758        2.84499955040930        2.23308631630440
C           -1.59323546491663        2.15777826233945        1.18095111515269
C           -2.78220537048444        2.06913518196746        0.26236414521115
C           -3.34295655210159        0.65698037394262        0.33415730469966
C           -4.33129558986811        0.24951583129736       -0.56289309102814
C           -4.87250971154164       -1.02089459253156       -0.51572375121095
O           -5.84364138487196       -1.49296612700349       -1.35052321123285
C           -6.42328028606157       -0.61002244380316       -2.27553223758850
C           -4.41735350326845       -1.93828671571428        0.45432291064676
O           -5.00876396809551       -3.16853001972431        0.42199406978414
C           -4.67565617141194       -4.09614443858213        1.42155984240334
C           -3.43711612174775       -1.53601158821727        1.34070496722867
C           -2.90846791085518       -0.25203971510742        1.28060472812748
C           -2.25186630486615        2.33083992753443       -1.17516013242384
C           -1.32053660261577        1.22930747592070       -1.71176974049078
C           -0.03238551456034        1.18464997371200       -0.96247479329378
N            0.63587611705506       -0.00886740125357       -0.70983968138483
C            2.01159968573314        0.00979115278337       -0.31896504027068
C            2.99293863829751       -0.48898476656237       -1.42477325435540
C            4.40874295133258       -0.54138340249942       -0.83930678070177
C            5.13483224436156        0.62675337205869       -1.00438216961148
C            6.43671853725353        0.76884546207090       -0.55986811522879
C            7.06094836340648       -0.26741182080703        0.10507997658178
O            8.34566724019680       -0.24551399122044        0.55933685708276
C            9.11899482282712        0.90337486006354        0.32095012355651
C            6.33665854949374       -1.45644162718070        0.34730338475371
O            7.04833251619888       -2.41123912200131        1.01431621750997
C            6.45027676545387       -3.65287165332075        1.27183300658076
C            5.02655501378176       -1.57781691138235       -0.10842379249313
C           -0.05388192477116       -1.26784397387793       -0.74369154680380
C           -3.91674152482742        3.07033495957337        0.61166783084443
C           -4.51583884596164        2.75840271474787        1.98135827873307
C           -3.45698917093712        4.52649627496663        0.57564924838976
H           -4.68928097856951        0.94508241027724       -1.30323690749509
H           -6.87383150451014        0.25690159784296       -1.77898461088545
H           -7.20308969687204       -1.18344551759163       -2.77509395033142
H           -5.69712019313100       -0.26590256239298       -3.02055413542860
H           -4.89229786568745       -3.70634152430861        2.42214634343831
H           -5.30171160377659       -4.96643329317784        1.22959127205844
H           -3.62185920193212       -4.39216786801350        1.36887071699314
H           -3.06715658569628       -2.21543522593967        2.09125270406562
H           -2.15849303345485        0.03686403018040        1.99864868139430
H           -3.09704637764031        2.43009544252742       -1.85810953407787
H           -1.71209313941022        3.27825280282354       -1.17916846361437
H           -1.84914204961717        0.27928682689327       -1.66108568542331
H           -1.11703073849957        1.43219914071403       -2.77370151992454
H           -0.72686307876229        1.63874666021562        0.70340121180230
H            0.60132478183671        2.05531544471825       -1.05488166765545
H            2.15495106288716       -0.62130796905918        0.56392816308865
H            2.27620345437130        1.03383227538813       -0.04338445441012
H            2.86406398882214        0.19404503368548       -2.29071892000702
H            2.67182691246931       -1.49014308532594       -1.71860560816095
H            4.66850867230190        1.44870321634169       -1.51888710244282
H            6.96149182022893        1.68815261580852       -0.75819260873274
H            8.69197895058035        1.78816263727046        0.80570356421802
H            9.23728141013148        1.09780653306226       -0.75098719815141
H           10.09516138623704        0.69529630191417        0.75530114825111
H            7.21205849521104       -4.24822516325835        1.77450706903491
H            5.58157390321488       -3.55056806326089        1.93026181688280
H            6.15402747195516       -4.15918584696208        0.34801318476656
H            4.49368782392733       -2.49378987661960        0.09829338431706
H           -0.25581018632350       -1.57901840027491       -1.77363146614043
H           -1.00734257445125       -1.21768469339959       -0.20756275607441
H            0.56878480904787       -2.02568025873381       -0.27400212394231
H           -4.70285964627305        2.94555869986751       -0.14350650294207
H           -3.75919835368860        2.88523338459288        2.75048042199602
H           -4.88016772420142        1.73442888985255        2.01891650042582
H           -5.34640147076564        3.43229381373226        2.18025316790319
H           -2.65273456053797        4.67863123864444        1.28756383195568
H           -3.11927448547366        4.81636600574444       -0.41535824622417
H           -4.28661694211947        5.17506200807318        0.84935305701666
H           -0.63711090403286        2.82119830381734        2.70141477388328
