72
 energy: 80.060636304486 xtb: 6.6.1 (8d0f1dd)
N           -1.62726655540417        2.96840182439787        2.22924201630776
C           -1.70590701693305        2.24052374406214        1.20094497624946
C           -2.89601115720786        2.10157036193372        0.29283349967741
C           -3.42159938593662        0.67397180032605        0.35622021493564
C           -4.41290942039026        0.25527231057900       -0.53379695798116
C           -4.94110889581682       -1.02089268276792       -0.48403754634453
O           -5.91135513406595       -1.49840346017163       -1.31050674524016
C           -6.50605699519239       -0.60836409277299       -2.21979596458555
C           -4.47280623554778       -1.93643301156504        0.48499422556402
O           -5.04889487063434       -3.16925677751387        0.45531602295610
C           -4.71054455795667       -4.08507402964149        1.46385936092536
C           -3.49167193246526       -1.51937612324315        1.36350732545821
C           -2.97593377273875       -0.22984760344650        1.29985431084899
C           -2.42565454012945        2.43246545912021       -1.15916818085319
C           -1.52253970323265        1.38403789344933       -1.85017295428768
C           -0.16377877879988        1.35663321348733       -1.22373238045741
N            0.54361069129108        0.17053624696734       -1.02542666508853
C            1.99560577198134        0.18122937640482       -0.78535148697619
C            2.90830432352272       -0.24984027277562       -1.92458615072858
C            4.62267455409055       -0.86730111523409       -0.68324169080870
C            5.29992216793551        0.31437210512165       -0.87063900982508
C            6.59160518179843        0.53805129017399       -0.43270618660285
C            7.26741690795032       -0.44496923010305        0.24397182985701
O            8.56943939075518       -0.34564188765431        0.65458642138014
C            9.27266875346519        0.82645782325514        0.32542508736318
C            6.58900203187580       -1.64952738095425        0.54857495172596
O            7.35959175516084       -2.51219967339505        1.27896521007513
C            6.85268471859399       -3.76390656001597        1.63899636197006
C            5.27929920447999       -1.85516055547473        0.09855042178740
C           -0.08436797058745       -1.14766495597663       -1.10047572129336
C           -4.05813723247023        3.05091810561586        0.69764092960389
C           -4.57279725003226        2.70429731878824        2.09276811538871
C           -3.64715144887426        4.51914253960763        0.65513358275443
H           -4.78285910645504        0.94701711381732       -1.27232568005200
H           -6.95078436275477        0.25134700842882       -1.70549282162226
H           -7.29172419935034       -1.17674856276285       -2.71434665743109
H           -5.78683758550929       -0.25762432672691       -2.96817800802477
H           -4.92107378303036       -3.67751987968611        2.45910613662766
H           -5.33558374965192       -4.95921837310686        1.28503849783791
H           -3.65630341884183       -4.38138602936461        1.41260047288263
H           -3.11206854482924       -2.18917820324361        2.11774296587217
H           -2.22414537024403        0.06288740043114        2.01579414266803
H           -3.31023090067094        2.57827431783760       -1.77970673860120
H           -1.89378935431942        3.38243325206286       -1.12409831049052
H           -2.01444087117574        0.41900854835047       -1.76380661169205
H           -1.46383419453467        1.59612106182882       -2.93789041946550
H           -0.85259749734145        1.63297886126748        0.83765499832581
H            0.40330148739923        2.27718488682737       -1.35388993986303
H            2.21102075441518       -0.44295886044939        0.08397922413302
H            2.21913608406871        1.20303178257760       -0.49571602919719
H            2.96626889919853        0.51802772474539       -2.76062479940591
H            2.68561449743449       -1.23212417222472       -2.29835711409333
H            4.83710027660545        1.11519545620519       -1.39840716529284
H            7.06910502355082        1.47169935501476       -0.66825345229039
H            8.81576712783581        1.71677898238332        0.77482819895494
H            9.34535366151328        0.96566325789702       -0.75880987177223
H           10.27472432816680        0.69928443050499        0.72937541293845
H            7.67891110735354       -4.26882354092168        2.14075243348318
H            6.01092613477553       -3.66923193434541        2.33259086459526
H            6.55322809689463       -4.35351808342498        0.76826930409774
H            4.80594155786583       -2.77446294374451        0.41156112461517
H           -0.34580873967509       -1.41714602220143       -2.12656121100636
H           -1.00086634191434       -1.16641564182910       -0.50435478746472
H            0.58593208630648       -1.92590757375596       -0.73229190617212
H           -4.87616337388409        2.89908221550787       -0.01719187645995
H           -3.78255810886831        2.85751588786148        2.82228337706994
H           -4.88925810600754        1.66514407370436        2.13825753424350
H           -5.41768340121258        3.34451940454322        2.33895556281894
H           -2.81355864984544        4.67875031573210        1.32931827989259
H           -3.36234755519571        4.82366327908474       -0.34721470232036
H           -4.47834587198090        5.14330668253979        0.97609864591468
H           -0.71673571829906        2.97721332690379        2.68049556666402
