72
 energy: 99.656554514590 xtb: 6.6.1 (8d0f1dd)
N           -1.61303663847111        2.98717009342154        2.14474584143305
C           -1.72593419320753        2.24580161519355        1.13942779571521
C           -2.97200240644227        2.11889634371054        0.31061475934532
C           -3.48137304759979        0.68734100358317        0.36557591400875
C           -4.47214425885559        0.26265504957009       -0.52028134509333
C           -4.98946103708414       -1.01714781077148       -0.46255021859154
O           -5.95910790784315       -1.50371768282522       -1.28495788281298
C           -6.56454893748586       -0.62725340086138       -2.19905446465278
C           -4.50805841720473       -1.92558562488433        0.50498549810484
O           -5.07344303878399       -3.16352020669273        0.48057384317795
C           -4.73165410058153       -4.07842134615743        1.49074791756883
C           -3.52680489259953       -1.50310167765578        1.38121687413307
C           -3.02382413514947       -0.20977640932831        1.31185811441729
C           -2.54294874625170        2.48774216552571       -1.13501432482249
C           -1.67391980222882        1.43106442997863       -1.85586355900248
C           -0.26221548873462        1.37916057368608       -1.36944772709337
N            0.46923867659954        0.28992099468227       -1.19810685297811
C            1.95583644512556        0.35539704662889       -1.07508914625331
C            2.63411267725933        0.02239450566134       -2.34286116273514
C            4.79931883524425       -1.10129507783755       -0.38773127374951
C            5.38010107204118        0.08735535078643       -0.75619975702371
C            6.68819262800363        0.37699672700705       -0.38344267543344
C            7.40774992714317       -0.55371589563750        0.32746564458345
O            8.71423836026806       -0.39923518549253        0.71724930730786
C            9.37693855180052        0.78017620969849        0.34359204038667
C            6.80434188392830       -1.76717541815597        0.71022273823291
O            7.61176628284984       -2.58782410738421        1.44123954699829
C            7.14730427323531       -3.83810866564313        1.85166606876002
C            5.49030928788356       -2.03402349161328        0.34707878974049
C           -0.10996646121888       -1.03659477795004       -1.30948017480808
C           -4.12815453901808        3.04652836673385        0.77641871441025
C           -4.59722122788159        2.67791334568379        2.17908192382575
C           -3.75841340747507        4.52781716156001        0.72264040301970
H           -4.84802361754740        0.95303321007496       -1.25644876353443
H           -7.01903297612409        0.23281347244009       -1.69516729985998
H           -7.34609289415122       -1.20989397591822       -2.68321123694528
H           -5.85414168580760       -0.27521855298388       -2.95657741202373
H           -4.94300479130549       -3.67337017598615        2.48598869456096
H           -5.35970294215837       -4.95006446624009        1.31376697361141
H           -3.67918198948548       -4.37390645080813        1.43549840467314
H           -3.14075425208153       -2.17032978830135        2.13451687307149
H           -2.27153695447163        0.09000000303237        2.02465792872453
H           -3.44966920406023        2.64860708534974       -1.72156802755566
H           -2.01511836692558        3.44208446246119       -1.10538000759781
H           -2.16246730821126        0.45984041022060       -1.78257888640367
H           -1.65940671460951        1.71177861362668       -2.91714094939663
H           -0.91219419803618        1.61999925937953        0.74530005677857
H            0.19107038635444        2.35906494506384       -1.28832489626669
H            2.18024663915059       -0.29876532057873       -0.23723612519697
H            2.18735575405150        1.37124943254741       -0.76637377513918
H            2.63467501174458        0.76500932032583       -3.14716323283325
H            2.62926035128202       -1.01333754666846       -2.65955947509839
H            4.85210052519720        0.81949216511329       -1.33100981666360
H            7.13763219948783        1.30994260668814       -0.67632480815678
H            8.90062550571013        1.67234412729802        0.77235865524127
H            9.43149841785988        0.89188181290543       -0.74610944566117
H           10.38779188691919        0.68759409774279        0.73946195911492
H            8.01606795433254       -4.27208083194576        2.34546834214978
H            6.31818353205713       -3.76442566464037        2.56698204063134
H            6.85170711200995       -4.48278664224933        1.01552161655918
H            5.03553937114373       -2.96206008382001        0.64926387455073
H           -0.39442003102452       -1.27175887923461       -2.33488431574572
H           -1.00329073130017       -1.11456048869899       -0.68956794984493
H            0.61464991370543       -1.78142038612147       -0.99395309067286
H           -4.96840459159042        2.87479257165195        0.09264581756290
H           -3.79378885579402        2.84866909381992        2.88607753717683
H           -4.89841739980243        1.63420948741213        2.22522554701281
H           -5.44758839478976        3.29579504522507        2.45434480573408
H           -2.90852503909269        4.71829375305103        1.36919997267267
H           -3.51884678898238        4.85077831404763       -0.28836616787192
H           -4.59661702122981        5.12167042812847        1.07567139978418
H           -0.68296191087072        2.99543019365715        2.55113299042620
