72
 energy: 35.849413726217 xtb: 6.6.1 (8d0f1dd)
N           -1.61805993356139        2.99465714977530        2.23245514659073
C           -1.67380299330160        2.23709123905580        1.21745321964821
C           -2.85596184773290        2.09657612133612        0.29353605031423
C           -3.39458713026809        0.67445447064506        0.35370050555801
C           -4.38586618141739        0.25375283649840       -0.53598616388300
C           -4.91887190152006       -1.02273003855020       -0.49192371573383
O           -5.89487908784982       -1.49894085580875       -1.32266285648450
C           -6.47751957748835       -0.60551443188848       -2.23366563625029
C           -4.45637355728949       -1.94195446185821        0.47431463092399
O           -5.04637259524331       -3.17499682729746        0.44707029032636
C           -4.70067888856712       -4.09088440882818        1.45035166633140
C           -3.47430711805007       -1.52571084904919        1.35357870842753
C           -2.95408269620680       -0.23679979506885        1.29340321068536
C           -2.36675409075197        2.39649068286350       -1.15816538971967
C           -1.44598373796204        1.33514821556987       -1.80184633150284
C           -0.11262644162502        1.31137004971742       -1.11902174754575
N            0.59639388205586        0.09147328464985       -0.94542432904803
C            2.01071106796840        0.10219319291740       -0.63048831753964
C            3.03169729222585       -0.38760557372491       -1.70894868242147
C            4.51382444950376       -0.74289494770621       -0.80457896643404
C            5.24323284380946        0.42487082992119       -0.91861051382514
C            6.53454900775906        0.62001927203010       -0.46877463068109
C            7.19109527545760       -0.38471751393515        0.19960530903193
O            8.48712091154855       -0.31368751870015        0.62043699514231
C            9.21832956532948        0.85135855665452        0.31937583041993
C            6.48059070432299       -1.57692355156761        0.47887273133308
O            7.23992167219436       -2.47179197296826        1.18468438496316
C            6.71179766117862       -3.72414177265787        1.52043093026250
C            5.16782265552278       -1.75239793945025        0.00221590268765
C           -0.06780436261560       -1.19309919390911       -0.98409605614221
C           -4.01528736578035        3.05433157094457        0.66759396175829
C           -4.55607363807833        2.72030456515546        2.05541914953206
C           -3.58664056212196        4.51888138624145        0.62630818476377
H           -4.75053132256202        0.94349093318429       -1.27960794196446
H           -6.91901804727631        0.25812623203719       -1.72140066131052
H           -7.26280242100569       -1.17016908662795       -2.73414473206619
H           -5.75487105790629       -0.25438915838988       -2.97969286970720
H           -4.91149338516343       -3.68786946945336        2.44722398322226
H           -5.32491713598924       -4.96426680296267        1.26806845335610
H           -3.64573483982440       -4.38523814586999        1.39710363228226
H           -3.09682270778732       -2.19682360832670        2.10742051700588
H           -2.19919375250560        0.05398932551019        2.00545149309309
H           -3.23701101967078        2.52954860152298       -1.80275386104178
H           -1.83237154093456        3.34508682644923       -1.13379449310611
H           -1.95041104619485        0.37573659605703       -1.72981637074435
H           -1.34561316526011        1.54051664536043       -2.88405683370669
H           -0.81627620827945        1.63487395704155        0.83811366734514
H            0.49709072596341        2.19976232290212       -1.28255827576116
H            2.21400853663611       -0.52424067879470        0.24370494775853
H            2.22231702648266        1.13401792212655       -0.34513069388380
H            3.04887302721609        0.38552250687227       -2.55773895246653
H            2.66211288895988       -1.32737667095400       -2.11510931505331
H            4.76602845500978        1.23431819973724       -1.42302151257593
H            7.03109894017719        1.54855340371654       -0.68738394221392
H            8.77315682328649        1.74131625153638        0.78008541962894
H            9.30712537128976        1.00797175681857       -0.76251911405770
H           10.21243748925007        0.69972257705789        0.73510982376944
H            7.51722011869941       -4.26169752255762        2.02389280091850
H            5.86331192960208       -3.62536717171061        2.20430111962681
H            6.41139125864706       -4.29001906164964        0.63456936238006
H            4.68725312261647       -2.67588660171422        0.30404251200414
H           -0.31982223778289       -1.48081620284431       -2.01031417958403
H           -0.99714693981059       -1.18479435102247       -0.40410250542332
H            0.58451587836578       -1.96807452808465       -0.58098554978162
H           -4.82225020163791        2.91308383747348       -0.06340570429667
H           -3.77187692649049        2.86108706106659        2.79557493863179
H           -4.88443515316449        1.68411639517570        2.09674401855888
H           -5.39633079371007        3.37231756864512        2.28645622292655
H           -2.76149318841559        4.66619170004300        1.31268842870756
H           -3.28183720427400        4.81329021883932       -0.37286768355564
H           -4.41550516382105        5.15513369386336        0.93031385996883
H           -0.72262657932314        2.96221205803093        2.72369044420870
