72
 energy: 94.419586583808 xtb: 6.6.1 (8d0f1dd)
N           -1.60991281900905        2.99537606901667        2.12462791078659
C           -1.74150281136946        2.24349138625896        1.13109462567213
C           -3.00338150831867        2.12912462537568        0.31765747918282
C           -3.50567359097156        0.69332733474659        0.37096163713861
C           -4.50115706940044        0.26754936877607       -0.51274614068048
C           -5.01220557081317       -1.01497583137209       -0.45752020341046
O           -5.98679045863894       -1.51042419444211       -1.26984200677040
C           -6.59834915808719       -0.65511216602222       -2.20101582493891
C           -4.52100652234261       -1.92258684562379        0.50886231785853
O           -5.09010889478702       -3.15819125789104        0.48993073005758
C           -4.73065772111406       -4.08133285823243        1.48667187379183
C           -3.53734026363788       -1.49919087147827        1.38213678290633
C           -3.03856514918520       -0.20354265440983        1.31407359057442
C           -2.60973534210697        2.50876261819762       -1.13643518591239
C           -1.75400437678333        1.46686734788031       -1.87885755020188
C           -0.34356148962886        1.43331669797278       -1.40138533260911
N            0.40961792602532        0.36572889598518       -1.25082652970851
C            1.94997289958749        0.48130000036499       -1.25270576522380
C            2.43311522063053        0.18699652583425       -2.56214637619897
C            4.91543937050330       -1.26270434659094       -0.21574767767456
C            5.41641554969158       -0.07907877200636       -0.66866428941577
C            6.73797722334382        0.24682073593772       -0.35370835970663
C            7.51617579271856       -0.62318501965890        0.38891059331864
O            8.82328218624317       -0.40702574890861        0.75489362230602
C            9.44471810166621        0.78721670754089        0.36146029889120
C            6.97389171487294       -1.84745870762294        0.82937925271177
O            7.83027746849668       -2.64207207987305        1.54052538209628
C            7.40222546756790       -3.90364537302923        1.97386209978206
C            5.65162841267246       -2.15421026558294        0.52163259878708
C           -0.12928446386902       -0.96294070536472       -1.43625517686378
C           -4.15626278011375        3.05325743556457        0.81220168414940
C           -4.60823096471119        2.68021776704548        2.22439079305423
C           -3.80705702594863        4.53995285289724        0.77060107639761
H           -4.89025517635754        0.95668326870504       -1.24498239018029
H           -7.06585862645781        0.20734825625278       -1.71389791224455
H           -7.36923072182261       -1.25538575474037       -2.68238699511780
H           -5.88882667055322       -0.30627663061463       -2.95906875280152
H           -4.94082199084823       -3.69440229999096        2.48937729063095
H           -5.34805864400850       -4.95919215699812        1.30256559334216
H           -3.67436997557215       -4.36276497313776        1.41858191015091
H           -3.15457520298299       -2.16426782681082        2.13999154994225
H           -2.29441812133555        0.10162325717849        2.03371042797626
H           -3.52668509615747        2.67419073187114       -1.70580026363156
H           -2.06007947797175        3.45057410070789       -1.11321556485980
H           -2.21846226840013        0.48421357872810       -1.78419100216813
H           -1.75900325731900        1.74105752381477       -2.94216595744241
H           -0.93168890729606        1.61728496432095        0.72091566188265
H            0.14353258398701        2.38242489550210       -1.22410132204474
H            2.28788225420422       -0.23123075228892       -0.49251231037810
H            2.13610860579158        1.50380963480426       -0.92283919709678
H            2.30504960311027        0.90568111437568       -3.35187383816109
H            2.58213981875813       -0.83231950281356       -2.86067983750596
H            4.81883307938054        0.59136008793487       -1.27094702986525
H            7.14472815063935        1.18380846804494       -0.70286912206262
H            8.94327317900770        1.66726837318762        0.78083829284064
H            9.49264522653867        0.88515747021416       -0.72931228174338
H           10.45838177978681        0.73164331273903        0.75872631585043
H            8.26678120320863       -4.34037111303278        2.47501130844037
H            6.57280169787793       -3.83462713812858        2.68666503578681
H            7.11267246038626       -4.54925289646378        1.13831312468988
H            5.21412146119817       -3.08360372357975        0.85659409761145
H           -0.43464878320069       -1.17132675894665       -2.46498175966687
H           -0.99488308137698       -1.08361759256081       -0.77735522155300
H            0.62950458992948       -1.69028427307779       -1.15095842342578
H           -5.00223842157949        2.88518396720270        0.13407147044374
H           -3.80101817923718        2.85037745454258        2.92899410311788
H           -4.90835008740830        1.63662674273839        2.27754827138542
H           -5.45707413451446        3.29539278541060        2.51424473598417
H           -2.94334380872969        4.73751011784452        1.39759681940173
H           -3.60272406131222        4.87761291598993       -0.24126182942086
H           -4.64875273617171        5.11708696428038        1.14909049457644
H           -0.69474345455190        2.99574665868914        2.57102446261667
