72
 energy: 64.394580475561 xtb: 6.6.1 (8d0f1dd)
N           -1.63059033634085        2.99998927854601        2.23173237858042
C           -1.69771757179256        2.25351089860665        1.21047129898335
C           -2.88292761012088        2.10229033024008        0.29597432985927
C           -3.41104491093367        0.67379922670253        0.35625122953582
C           -4.40255533702140        0.25392986873306       -0.53486829650295
C           -4.93342227356088       -1.02237305455070       -0.48760427373508
O           -5.90838027859636       -1.50013251502988       -1.31447098496775
C           -6.49647853839063       -0.60744946487137       -2.22342733729789
C           -4.46698712235935       -1.93875209680633        0.48104351686021
O           -5.04834588878634       -3.17250042033537        0.45249537971269
C           -4.70727918116881       -4.08732448689332        1.45941150824480
C           -3.48569457996032       -1.52156570329471        1.35977587200091
C           -2.96807783497290       -0.23178734053053        1.29899108962205
C           -2.40748914675817        2.41932278263932       -1.15784058857432
C           -1.49439263221873        1.37042333153670       -1.83634124022069
C           -0.14985783835041        1.35561613059531       -1.17599262754734
N            0.56807903860200        0.14078356698973       -1.00728869768918
C            2.00301368696561        0.15259665735029       -0.73267532479867
C            2.97716976320306       -0.31463755261237       -1.83627215263438
C            4.57337310566192       -0.81836950154627       -0.74574772737990
C            5.27913904633364        0.35392216159302       -0.88937786520034
C            6.57041618842493        0.56595620434833       -0.44253119032002
C            7.23936550499620       -0.42512794043287        0.23018671991069
O            8.53852940982876       -0.33553757137163        0.64246741556736
C            9.25349863032548        0.83407179366347        0.32176963852849
C            6.54480117156669       -1.62471834286628        0.52329455541532
O            7.31230268034322       -2.49749794253017        1.24599279062459
C            6.80276607433098       -3.75058306275340        1.60127163657391
C            5.23343530730105       -1.81674493372058        0.05658639737402
C           -0.07614881808127       -1.16207745430941       -1.06359611989610
C           -4.04621593374550        3.05069370952938        0.68722282909777
C           -4.56968636053955        2.70919070907183        2.08012257770499
C           -3.62864225596350        4.51836869299507        0.64475292112050
H           -4.77140555431583        0.94531721547109       -1.27431605785296
H           -6.94020573256230        0.25354987457513       -1.71053888130000
H           -7.28279229051357       -1.17222685352395       -2.72121912260146
H           -5.77597698172363       -0.25425427978245       -2.97008216457677
H           -4.91785085681745       -3.68090496127120        2.45508377552258
H           -5.33223580027804       -4.96114816396405        1.27968290837021
H           -3.65277023483663       -4.38285226067879        1.40739206628122
H           -3.10685577097243       -2.19213539535437        2.11399379279062
H           -2.21524137998150        0.06015646804978        2.01406198807281
H           -3.28684023790815        2.56175850194547       -1.78658468536110
H           -1.87356234469941        3.36944942101227       -1.12767353796604
H           -1.98797369064219        0.40514492107421       -1.75676856758298
H           -1.42257190883171        1.57889428202794       -2.92290011839549
H           -0.84798623069491        1.63284617949911        0.86574481881555
H            0.44203289100405        2.25377618342968       -1.34073925071802
H            2.21440152253209       -0.47174720151512        0.13827735474074
H            2.21281864800989        1.18042782303714       -0.44627613833457
H            3.02267432975491        0.46510980837294       -2.68116241913610
H            2.66031853351945       -1.26618593033652       -2.24466552926257
H            4.81717016128860        1.16261748402230       -1.40458076830251
H            7.05536999443295        1.49744791211123       -0.67242150553746
H            8.80194048327713        1.72558053057948        0.77392709029700
H            9.33206803028970        0.97903151273367       -0.76183714053899
H           10.25322300834339        0.69960403176282        0.72976198612388
H            7.62146954641240       -4.26868504255742        2.10429524683423
H            5.95984281240701       -3.65290930005297        2.29224237915044
H            6.50224846816699       -4.33360218439607        0.72652658895763
H            4.76370184645958       -2.73830971777197        0.37360890308791
H           -0.34010856967968       -1.44250731933399       -2.08906781158095
H           -0.99753897820436       -1.17207393374539       -0.47174061612359
H            0.58603554084236       -1.94109350124139       -0.68220593067659
H           -4.86034255364074        2.90399405686418       -0.03440353472413
H           -3.78101759277693        2.85977108823829        2.81259941347297
H           -4.88620656613703        1.66914515593394        2.12419672546612
H           -5.41387040048938        3.35285182690334        2.32140134783734
H           -2.79757357041601        4.67158256228011        1.32309919750648
H           -3.33584765144270        4.81644301854397       -0.35686852079544
H           -4.45899757011120        5.14855431563594        0.95798647683992
H           -0.72464858627672        2.97929155946792        2.70130769542109
