72
 energy: 95.043380409961 xtb: 6.6.1 (8d0f1dd)
N           -1.61599489014127        2.94450927330755        2.20722369351544
C           -1.70939989758196        2.22412291755278        1.18282279209753
C           -2.92031884755868        2.10310259376699        0.29677708677788
C           -3.44065838957203        0.67633209647216        0.35660945337015
C           -4.43153022365603        0.25806559933822       -0.53216030521404
C           -4.95587224928193       -1.01809241246498       -0.47822153191376
O           -5.92691923870769       -1.49660483042793       -1.29784058510778
C           -6.52550226855702       -0.61341586069659       -2.21261970096659
C           -4.48142627825807       -1.92969535434949        0.49139827856547
O           -5.05436666124914       -3.16173093008895        0.46520245058410
C           -4.71685485261448       -4.08212021791825        1.47289428909051
C           -3.50131240723056       -1.51358576980663        1.37002096951866
C           -2.99045600461155       -0.22357072312268        1.30274774781850
C           -2.46614343398457        2.45154622935836       -1.15443210438164
C           -1.58322781147876        1.40416604196531       -1.86468175056622
C           -0.20399244427388        1.36506459505382       -1.29493226288427
N            0.50181057496368        0.22347772383623       -1.07222750464930
C            1.97492233419942        0.24432420038529       -0.88062098703246
C            2.79469826426680       -0.15193295666567       -2.08201924449897
C            4.69045250347440       -0.95751803682692       -0.57591216016981
C            5.33030167219218        0.23515959594433       -0.83053821040183
C            6.62609412108405        0.48312156800228       -0.41407798628158
C            7.31441575364826       -0.48434528130173        0.27273596237978
O            8.61701406330235       -0.36803473835854        0.67871902405612
C            9.30597612694456        0.80768032025104        0.33056240528351
C            6.66408966274394       -1.69442593155146        0.60342374369764
O            7.44510047517823       -2.53903573557972        1.34144184576373
C            6.94860982545997       -3.78988843389511        1.71531025293079
C            5.35461379145092       -1.92303626172551        0.18405551651987
C           -0.09580884648722       -1.11057817571730       -1.17026787954317
C           -4.08272453617802        3.04788663256725        0.72163792900197
C           -4.57988346080812        2.69397240873449        2.12076855565629
C           -3.68479330714844        4.51987498483721        0.67659097003050
H           -4.80436594326017        0.95019008405506       -1.26809651113541
H           -6.97436667827877        0.24605925571322       -1.70411912234380
H           -7.30949785204627       -1.18759537891426       -2.70239521163765
H           -5.80915038047748       -0.26326773972051       -2.96410527206515
H           -4.92919543809598       -3.67486645252671        2.46745881294828
H           -5.34333322789717       -4.95561265398132        1.29501526103255
H           -3.66388514353595       -4.37842191103812        1.41993111646570
H           -3.12081847433498       -2.18308933566196        2.12370592233550
H           -2.23938159234771        0.07124964379709        2.01860586238966
H           -3.35821418307942        2.60358965643938       -1.75798455682390
H           -1.93562155144934        3.40215492202836       -1.12271380041171
H           -2.06532696468432        0.43282252252536       -1.76305953851345
H           -1.53737230075242        1.62675627607545       -2.95287595933998
H           -0.85830916901904        1.64139451896818        0.79073153661458
H            0.33284335394867        2.30152028477422       -1.33287819877124
H            2.19456302644991       -0.38562351583897       -0.02026405660786
H            2.21254876466159        1.26098469604487       -0.58883500464715
H            2.85563229525397        0.61120572514199       -2.89723281323223
H            2.67407079115918       -1.16883747847685       -2.42773843202893
H            4.85121020067617        1.01886185422417       -1.36868145963598
H            7.09183489473798        1.41742616101527       -0.67123975190352
H            8.84239116577025        1.69914229818949        0.77262944968889
H            9.37036302699937        0.93812472009256       -0.75557164799398
H           10.31275407375939        0.69336822165514        0.72772647220342
H            7.78911805308803       -4.27037505302083        2.21531941404705
H            6.11055119840738       -3.69928052542915        2.41548984940238
H            6.64866662326679       -4.39824530190202        0.85622464173170
H            4.88409563842183       -2.84335436060806        0.49032879018650
H           -0.35632941742094       -1.36648418934078       -2.19788343979566
H           -1.00603559451192       -1.15775653350655       -0.56856853495677
H            0.59560230526661       -1.87711158045338       -0.82106674132607
H           -4.90887057819152        2.88988484749480        0.01685639498144
H           -3.78615004331272        2.85651936973366        2.84369568900137
H           -4.89134718351761        1.65373481379788        2.16789731534041
H           -5.42636883528272        3.32549262992165        2.37646354028995
H           -2.84578870356348        4.69316822226867        1.34230310183495
H           -3.41534607996397        4.83133556402420       -0.32866166377502
H           -4.51878240195627        5.13426915625482        1.00788117906909
H           -0.70174260457342        2.98075847096318        2.63373257092086
