72
 energy: 96.398861241629 xtb: 6.6.1 (8d0f1dd)
N           -1.63311705255854        2.98640712511073        2.14620309613733
C           -1.74919197432827        2.24505999963928        1.14167863946616
C           -2.99858362544436        2.12670611900075        0.31838171057052
C           -3.50349416523805        0.69279445358062        0.37029572321759
C           -4.49576448483141        0.26675594519058       -0.51504382609850
C           -5.00932699550833       -1.01504205773568       -0.45798263386561
O           -5.98242606273922       -1.50721235054467       -1.27145615356439
C           -6.59281095759548       -0.64473816105092       -2.19647593944085
C           -4.52197947673558       -1.92125255323525        0.51099118803992
O           -5.08909953337800       -3.15736535880735        0.49255030266683
C           -4.73435899587948       -4.07724024736819        1.49415085905095
C           -3.54248269815589       -1.49538129723966        1.38718939623476
C           -3.04245574339239       -0.20117522512247        1.31761791777051
C           -2.58716769021287        2.50201968735095       -1.13293376381027
C           -1.73756029221982        1.45510735931243       -1.87647886109258
C           -0.31622669705295        1.41563698539720       -1.42172035447284
N            0.44155319996497        0.34436327066951       -1.28731901430585
C            1.94264273370402        0.43814580603302       -1.19916846558531
C            2.52880280265500        0.14027479033019       -2.49254119107856
C            4.86569034641352       -1.19637652697465       -0.26885372578152
C            5.40101395269797       -0.01494175241479       -0.69981490488870
C            6.72274535502068        0.29541300619288       -0.37086405519698
C            7.47303325385475       -0.59948592635330        0.36363327256563
O            8.78222761836390       -0.41441869888939        0.74549449566867
C            9.43126391908469        0.76670996846070        0.35875611690923
C            6.90308848036028       -1.81799238479269        0.78322023030819
O            7.73901439832517       -2.62037639219631        1.50435368398273
C            7.31074555010878       -3.87779195402949        1.93968607718583
C            5.58462111232348       -2.10836958651214        0.45741466413318
C           -0.11830469673313       -0.98171612268852       -1.41228044657002
C           -4.15140949352426        3.04935849115855        0.80887780244756
C           -4.60886669333080        2.67489340256182        2.21892190563134
C           -3.80766636961740        4.53587758400436        0.76310111995798
H           -4.87994053693668        0.95726379193335       -1.24730844874523
H           -7.05445220997861        0.21767539721662       -1.70373153067154
H           -7.36842995818358       -1.23798128773907       -2.67851354511526
H           -5.88429397966416       -0.29363286207939       -2.95584021750342
H           -4.94411983873919       -3.68531820338514        2.49510970201114
H           -5.35340210943453       -4.95487729917783        1.31387428930892
H           -3.67822513119502       -4.36277180277985        1.42697102993894
H           -3.15661676423606       -2.16155037326959        2.14239434091981
H           -2.29398127767413        0.10189152291977        2.03313986079247
H           -3.49767075646712        2.65828858236466       -1.71116536188329
H           -2.05514231576876        3.45432909572012       -1.10897969569430
H           -2.21561332938278        0.47795973453201       -1.78204046253650
H           -1.74484940506387        1.73387433135630       -2.93487666775954
H           -0.92769988090428        1.65465395695667        0.71468162695928
H            0.16428959308839        2.37624905563090       -1.30337374704690
H            2.21974115441348       -0.25250543999584       -0.40239492568685
H            2.15682285527473        1.45803773562482       -0.89179207257313
H            2.45278225402159        0.87282272610436       -3.28576772846409
H            2.60596725076975       -0.88892480197917       -2.80160657976696
H            4.82750271914424        0.67796281090814       -1.29655759104020
H            7.14965398211199        1.22960450242068       -0.69936823425257
H            8.94317190190810        1.65506850462490        0.77732144472957
H            9.48278124209748        0.86656465050931       -0.73149246990195
H           10.44485830491063        0.69982715841209        0.75512791431721
H            8.19311240904934       -4.29069968663402        2.43579174389381
H            6.48724614307938       -3.81833811659176        2.66128976773260
H            7.02577596336049       -4.54001878348729        1.11570294943364
H            5.14283921870955       -3.03870046258731        0.77526329560274
H           -0.42974976046704       -1.20542110744464       -2.43408260409613
H           -0.99343651158038       -1.07801728140928       -0.77222620180018
H            0.63308313475135       -1.70874465171958       -1.12207230572747
H           -4.99111914921062        2.87595860861726        0.12818109233209
H           -3.79816261611510        2.84875297219318        2.91556723905665
H           -4.90593286570806        1.63048277547922        2.27210135527603
H           -5.46003786343139        3.28722454609650        2.51017486290864
H           -2.94812352985276        4.73833226985091        1.39395895047611
H           -3.59475091295174        4.86943671561246       -0.25032434413074
H           -4.65109567149604        5.11146250506923        1.13592891514948
H           -0.71770672674963        2.98456421656326        2.59262623375261
