72
 energy: -5.029006895565 xtb: 6.6.1 (8d0f1dd)
N           -1.52113571298008        2.82038737758286        2.23441438843484
C           -1.57909480703800        2.15576104842899        1.16874868719471
C           -2.77054852964303        2.06623392100504        0.25589833168102
C           -3.33371532031522        0.65395919500532        0.33098723340976
C           -4.32201862666336        0.24845183864956       -0.56786787965240
C           -4.86509305061323       -1.02117015113786       -0.52104619089067
O           -5.83584024386691       -1.49200743016308       -1.35531407023646
C           -6.41486123236368       -0.61095743646827       -2.28291148459195
C           -4.41133266571777       -1.93966494683052        0.45039252909487
O           -5.00347557861872       -3.16807117839311        0.41815212472223
C           -4.67151047964751       -4.09743872841860        1.41693926467340
C           -3.43243181696118       -1.53834489830657        1.33891924695414
C           -2.90136797349928       -0.25481981506046        1.27915217153780
C           -2.23334172996410        2.32026075423088       -1.17917409983428
C           -1.30028117562032        1.21232027730576       -1.69742137063863
C           -0.01972790388825        1.16573134493475       -0.93920750240281
N            0.63648885684389       -0.02150623549883       -0.66157997680625
C            2.00948870640879       -0.00501168404157       -0.26617894931393
C            2.97524498847951       -0.50761672897939       -1.37699942606704
C            4.39411390959506       -0.50521417932658       -0.83986141159600
C            5.11654707188417        0.66167063051330       -1.01880852394753
C            6.42108177015629        0.79339766826742       -0.57567512572682
C            7.04001294367409       -0.24765488640524        0.08864542798550
O            8.32229924264401       -0.23382287038475        0.54910383400587
C            9.10260051071636        0.91202748392974        0.32174873830583
C            6.31478777920417       -1.43746813295895        0.32467901601476
O            7.01711566806839       -2.40173458284955        0.98580847002516
C            6.40677431156168       -3.64076188105248        1.23005933141693
C            5.00639303668999       -1.54909274081382       -0.12636960535619
C           -0.05251256716874       -1.27948922351134       -0.70265031327604
C           -3.90091205245776        3.07376704076863        0.60214729111389
C           -4.50904386671141        2.76528291856438        1.96897008837880
C           -3.43539673074444        4.52824570220589        0.56747608946146
H           -4.67925081162183        0.94535107108164       -1.30781257763970
H           -6.86721188343391        0.25633375449169       -1.78912421428065
H           -7.19354337997693       -1.18611914705944       -2.78219993687352
H           -5.68788322343369       -0.26829829562053       -3.02756951022602
H           -4.88895089622490       -3.70968388936165        2.41809416447846
H           -5.29767895783834       -4.96723473336948        1.22338903347590
H           -3.61778267962562       -4.39324076288196        1.36393222756408
H           -3.06938657579519       -2.21600438590255        2.09497704799955
H           -2.15570418529686        0.03268713331849        2.00321483396705
H           -3.07383998692290        2.41375382949655       -1.86831658764849
H           -1.69245982383029        3.26727731043346       -1.18780948936091
H           -1.83274032890443        0.26393229123152       -1.64868138749345
H           -1.07969823961568        1.41371276768760       -2.75521186447454
H           -0.71311352784189        1.64430410253296        0.68010606107859
H            0.61727821675464        2.03341613270765       -1.01666763385262
H            2.14299695456270       -0.63576519907792        0.61856625947208
H            2.28559082434419        1.01675698128171        0.00701690343470
H            2.83237943500232        0.15100828365750       -2.25164082356853
H            2.67541165532699       -1.52051958962944       -1.65073683021754
H            4.65434290847948        1.48592473758294       -1.53607694805347
H            6.95052647420477        1.71099931836310       -0.77141784028232
H            8.67829661293995        1.79570210377216        0.81054858855162
H            9.22640618510947        1.11279849634649       -0.74815478033139
H           10.07517883892831        0.69415940443272        0.75976264219508
H            7.16129437790231       -4.24501547892259        1.73234516390892
H            5.53470384337492       -3.53809703188410        1.88429677141787
H            6.11154572190846       -4.13739570283500        0.30029515182623
H            4.46252036049538       -2.46189164281298        0.06420082265729
H           -0.24439281559614       -1.59309917355746       -1.73382570371887
H           -1.01007664961273       -1.22497962233080       -0.17473472683731
H            0.56587264482735       -2.03482852327520       -0.22359969589124
H           -4.68350616400416        2.95190828847283       -0.15676151274157
H           -3.75835685497682        2.89126540217286        2.74366773853607
H           -4.87888367723756        1.74327170934650        2.00605038513017
H           -5.33803726189723        3.44253425171103        2.16245575557252
H           -2.63471127586686        4.68155658706894        1.28364177167456
H           -3.09213552413273        4.81752700054272       -0.42202379110285
H           -4.26489903781228        5.17889133585541        0.83621237822558
H           -0.62566746304847        2.80636555716842        2.71267009790180
