72
 energy: 94.457629705944 xtb: 6.6.1 (8d0f1dd)
N           -1.62087130027834        2.98632632171717        2.13709896549597
C           -1.74401444479253        2.24410283630873        1.13494247985004
C           -3.00241834234001        2.13015638134624        0.31721393251293
C           -3.50599203316341        0.69501351169045        0.37045888701718
C           -4.50035757929943        0.26875732524330       -0.51364021012602
C           -5.01148815405685       -1.01399748038730       -0.45816763060984
O           -5.98367635467716       -1.50866333100760       -1.27265809789703
C           -6.59309840395581       -0.65216676068202       -2.20432168767687
C           -4.52170439876901       -1.92149029340694        0.50936000795359
O           -5.08984057220070       -3.15725842012049        0.48997654919074
C           -4.73129369166899       -4.08027929182471        1.48715746275892
C           -3.53941406229156       -1.49692551799607        1.38400174833803
C           -3.04091152775799       -0.20129362773911        1.31496409497948
C           -2.60396343237551        2.50780273484769       -1.13590426514945
C           -1.74917768126382        1.46218180578961       -1.87301017899322
C           -0.34143476161698        1.42561997478314       -1.39029398467968
N            0.40856842824392        0.35678686985392       -1.23457104616491
C            1.93199292565106        0.46889972581479       -1.24351096333731
C            2.40434918847903        0.16204442840539       -2.56295087317541
C            4.92306358549578       -1.24757062663955       -0.20683193078961
C            5.42217999916657       -0.06559886049650       -0.66765121686735
C            6.74486510395817        0.25857669951774       -0.35400759149466
C            7.51806221117657       -0.61616008656401        0.38847808510417
O            8.82310566879775       -0.40351087295791        0.75345272329999
C            9.44429062383195        0.79046894539926        0.36177368190629
C            6.97751874156451       -1.84382477109031        0.82973700069911
O            7.83295284523762       -2.64077594264365        1.53899585437343
C            7.38993215438887       -3.90251247590258        1.96099957727261
C            5.65499829323776       -2.14856424267179        0.52719275877765
C           -0.13358627099138       -0.97081885830612       -1.41165484241218
C           -4.15350409105741        3.05488712256127        0.80992648438680
C           -4.60617793556725        2.68131605877576        2.22116898638306
C           -3.80024309688914        4.54041524072958        0.76649755684324
H           -4.88659156213113        0.95814618659051       -1.24669305510601
H           -7.05959703364490        0.21066366694676       -1.71726874967929
H           -7.36415759190101       -1.25110712885725       -2.68668681142526
H           -5.88300111026794       -0.30334627984337       -2.96225756080180
H           -4.94157982953586       -3.69351415456543        2.48979668096675
H           -5.34826635149732       -4.95867099549554        1.30390006877431
H           -3.67485800645971       -4.36142531117874        1.42029323071114
H           -3.15560193392603       -2.16199670880284        2.14124626560606
H           -2.29630031261836        0.10429429742095        2.03361020973448
H           -3.51690875167880        2.66697383420676       -1.71157879370814
H           -2.06367246336927        3.45552011870511       -1.11270964227057
H           -2.21994076996267        0.48291049189054       -1.78456892302401
H           -1.74324076867922        1.73606660360026       -2.93527934254589
H           -0.92891211871747        1.63206773813064        0.71834863425097
H            0.15215376492666        2.37923819493582       -1.26473703613261
H            2.27523643575968       -0.23693782102240       -0.48416956488605
H            2.12969093584565        1.49082448522597       -0.91592898297075
H            2.28797396994092        0.87832630674865       -3.35546585994582
H            2.64361116422467       -0.84674160454949       -2.83931346022419
H            4.82472962049494        0.60640573754702       -1.26831368158732
H            7.15066603661183        1.19603520997114       -0.70410216199084
H            8.94123711634470        1.66906726239136        0.78188403222843
H            9.49150882225429        0.88798921296822       -0.72882669945628
H           10.45675606565505        0.73315238903082        0.76020613084644
H            8.24450043410573       -4.35611498728012        2.46234324295733
H            6.55647009096087       -3.82790592323176        2.66903910410678
H            7.09115753918124       -4.53392384972990        1.11642151705140
H            5.21324755957395       -3.07665615001109        0.86002547634670
H           -0.43311810548322       -1.17644829456068       -2.44183481181162
H           -1.00510412531108       -1.09049302969444       -0.76421652921329
H            0.62675971201419       -1.69286629668513       -1.11983336550746
H           -4.99936119318235        2.88732119619359        0.13184682594436
H           -3.79857855129660        2.85151042676261        2.92535221411114
H           -4.90690650656537        1.63771662421878        2.27284361478942
H           -5.45513194974895        3.29712603751069        2.50889770592637
H           -2.93994421864118        4.73715829945900        1.39778540388755
H           -3.58881333205521        4.87733842954789       -0.24496731594658
H           -4.64154144786807        5.11891586182079        1.14126955537251
H           -0.70538367466521        2.99072623826668        2.58190644496754
