72
 energy: 17.958461177165 xtb: 6.6.1 (8d0f1dd)
N           -1.59517114403932        2.94530466217239        2.23172465018022
C           -1.65229680154262        2.19609817872042        1.21698474161308
C           -2.83056468999107        2.08522514155322        0.28558447791259
C           -3.37798870440336        0.66905808210373        0.34724017901049
C           -4.36783778796700        0.25291695312649       -0.54371065351182
C           -4.90418766731786       -1.02085578362959       -0.49657274905619
O           -5.87690160000663       -1.49634865644975       -1.33198465500688
C           -6.45837482884879       -0.60566659826677       -2.24691098356549
C           -4.44433710845461       -1.93851220804017        0.46929279743501
O           -5.03250045936941       -3.17242892226811        0.43735473077030
C           -4.69222985548118       -4.09198567698060        1.43972612686449
C           -3.46182608006371       -1.52713343416778        1.34982969735347
C           -2.93871852421417       -0.24123046936858        1.28837410408578
C           -2.32595300598734        2.37367122202072       -1.16119031857094
C           -1.40211092001759        1.29844935017278       -1.77038258213039
C           -0.08141983489046        1.26317878905333       -1.06399922594578
N            0.62503474392669        0.04709204910385       -0.89290904794879
C            2.01900184057779        0.06653896002662       -0.53141757535257
C            3.05474177625941       -0.42621193577899       -1.61974831702278
C            4.47428540683474       -0.68300700738223       -0.83422395203316
C            5.20740327935978        0.48851833399264       -0.94854737162353
C            6.50054519956537        0.66986547868780       -0.49867957172670
C            7.14691941096828       -0.34553429699420        0.16854264234702
O            8.44020832778727       -0.29072348789116        0.59905422237905
C            9.18500420965169        0.86930304179777        0.31843151910384
C            6.42878626934327       -1.53373291875763        0.43699396166941
O            7.17480864519144       -2.44934253876745        1.12882251300768
C            6.62452788550735       -3.69900667441746        1.43908936794785
C            5.11475755143168       -1.69277366331191       -0.03474345237664
C           -0.06223966366503       -1.22061679061106       -0.90528225773966
C           -3.98165373826440        3.05812328608447        0.64955279322456
C           -4.54194762706480        2.73137765897398        2.03142965752075
C           -3.54386308566293        4.52043286838622        0.60937991687149
H           -4.72993574544592        0.94421865232706       -1.28561762295959
H           -6.90211443082648        0.25931797691662       -1.73950797912677
H           -7.24223999613016       -1.17241889871639       -2.74759841872042
H           -5.73483357657889       -0.25646804748156       -2.99280184266206
H           -4.90511586140560       -3.69360749451223        2.43792846685282
H           -5.31719398788026       -4.96439291624196        1.25439098144083
H           -3.63778217338929       -4.38779784128023        1.38725012583033
H           -3.08609569052418       -2.20221428535856        2.10073370896676
H           -2.18216213169946        0.05104803563747        1.99637530799808
H           -3.18762701061608        2.49734262378650       -1.81982835413858
H           -1.78968885853708        3.32141297885814       -1.14547257874735
H           -1.91579317928309        0.34306590060870       -1.70855665481779
H           -1.26810170097299        1.50477655108573       -2.84655580941218
H           -0.78479608186209        1.63256294829294        0.79849476705723
H            0.53563995502039        2.14745660223989       -1.20896395474694
H            2.19401421106017       -0.55949250069676        0.34951171149358
H            2.23511105873189        1.09821825602950       -0.24315977378310
H            2.99417078434868        0.33847894301884       -2.46149298533880
H            2.66743827692950       -1.37841376046830       -1.98971866193421
H            4.72998803310558        1.30321050884167       -1.45206350373651
H            7.00659818504197        1.59561661481399       -0.71003961938868
H            8.74560909285565        1.75762624966698        0.78709236514961
H            9.28357366264029        1.03808307988189       -0.76059090001394
H           10.17341357858337        0.69980947377751        0.74076282160332
H            7.41506986562424       -4.25724844376541        1.94273372138841
H            5.76932781110976       -3.59867191368309        2.11442840866522
H            6.32485827326600       -4.24536319382543        0.54044656518767
H            4.62125480094249       -2.61636527064009        0.23884657076084
H           -0.30344737575143       -1.51960402108194       -1.93033640128630
H           -0.99924046020713       -1.19236881261394       -0.33731803945942
H            0.57761283072867       -1.99029669800041       -0.47688077300298
H           -4.78159268386049        2.92200075186663       -0.08981029220664
H           -3.76413683028852        2.86346666758189        2.78035135095989
H           -4.88326958214425        1.69944559976404        2.07052858917264
H           -5.37897144199458        3.39091223806281        2.25166451850660
H           -2.72544569816998        4.66817365896422        1.30428860646774
H           -3.22818312609212        4.81280319256701       -0.38730495286355
H           -4.37345187852622        5.16047665105013        0.90309016172541
H           -0.70067893619179        2.91141605160873        2.71364539906853
