72
 energy: 99.415645563642 xtb: 6.6.1 (8d0f1dd)
N           -1.60478282636110        2.95382781003167        2.15519491246897
C           -1.70317481419578        2.22394643522166        1.14524065720252
C           -2.94290353497962        2.10859466988085        0.30010791556191
C           -3.46011108182388        0.68114108574589        0.36003413695180
C           -4.45128234954707        0.26012739514452       -0.52629345329047
C           -4.97156396711905       -1.01749298923613       -0.46937696808012
O           -5.94216970089908       -1.49946715436117       -1.29100855250661
C           -6.54472481144414       -0.61865652640517       -2.20484205774871
C           -4.49352132723534       -1.92703254531013        0.49892599201421
O           -5.06197838450417       -3.16181974383774        0.47298471566154
C           -4.72340473005967       -4.08069988343811        1.48198256824123
C           -3.51302026137915       -1.50845793287756        1.37696274475576
C           -3.00636219163969       -0.21698306658213        1.30707737338310
C           -2.50011905960697        2.46815304003107       -1.14591036673348
C           -1.61783515844169        1.41070714849208       -1.85181406499116
C           -0.22346417188019        1.34997421438615       -1.32862297572023
N            0.49026146963288        0.24658202577154       -1.13050029741977
C            1.97087608020664        0.29519625941252       -0.97690161562531
C            2.70477893137035       -0.06181072828797       -2.21888164913845
C            4.74666490501862       -1.03316334233671       -0.47521571796954
C            5.35680529220172        0.15977310825184       -0.79153251886462
C            6.65788919842073        0.42989293924522       -0.39557175266121
C            7.36161839306111       -0.52032375561379        0.30095940950299
O            8.66670265240354       -0.38512688121627        0.69827084085768
C            9.34055642666008        0.79300734626152        0.33712479795201
C            6.73503641147925       -1.73313244852985        0.65713506279445
O            7.52853005218336       -2.56383205877455        1.39336783267382
C            7.04790616765758       -3.81442163170604        1.78086395129660
C            5.42423182668084       -1.98241636827742        0.26657357225544
C           -0.10242441120125       -1.07706339950716       -1.23532199271642
C           -4.10395437843122        3.04625945256687        0.74776983923354
C           -4.58780951235088        2.68585164528232        2.14928788975218
C           -3.72101479382202        4.52372606823388        0.69905601255297
H           -4.82583963599355        0.95137598838464       -1.26224730168658
H           -6.99543008509503        0.24101314120310       -1.69658181606712
H           -7.32751733096970       -1.19725092771368       -2.69168457648733
H           -5.83152532412997       -0.26897399585142       -2.96048554798803
H           -4.93537072162718       -3.67489659382991        2.47658966879265
H           -5.35121854723868       -4.95283567279162        1.30637850177342
H           -3.67124834893418       -4.37725512804669        1.42625865882062
H           -3.13036463251766       -2.17746247798508        2.12997931109368
H           -2.25510807056206        0.08065888708982        2.02166513678334
H           -3.39983713274201        2.62677771533305       -1.74124187021733
H           -1.97205626617345        3.42280268941419       -1.11395559080223
H           -2.11260899982602        0.44448554203368       -1.77600087980378
H           -1.58654724292692        1.66579432571952       -2.92639305474509
H           -0.86419754086443        1.63433267776223        0.74797847126373
H            0.25387102763304        2.31766422767645       -1.29179950780338
H            2.18490904556598       -0.34063739780260       -0.12304510400118
H            2.20253239371850        1.31253410392481       -0.67911500638506
H            2.73239251609111        0.69161716072268       -3.02344143853628
H            2.66565513675577       -1.09388299565084       -2.54422690253203
H            4.85863308192982        0.92032408344647       -1.34801539321615
H            7.11559523461987        1.36435974024662       -0.66756783127544
H            8.87133275373293        1.68541104168106        0.77397732040815
H            9.39953599125524        0.91393901122971       -0.75135325880881
H           10.34889157265301        0.68799976408993        0.73445136686257
H            7.90459224818998       -4.26712585816300        2.27681196304471
H            6.21377534472323       -3.73539498761274        2.48862001712398
H            6.75064080862153       -4.44279228122238        0.93318083910500
H            4.96007795017539       -2.90647546304421        0.56791316148225
H           -0.37316876633650       -1.31282035113424       -2.26291174839635
H           -1.00665384871992       -1.14259504025166       -0.62860966380633
H            0.60346239608651       -1.83900911455309       -0.91166981896331
H           -4.93823352757955        2.87988247655962        0.05368367565503
H           -3.78958169244372        2.85201075779830        2.86498467425254
H           -4.89587804122375        1.64444040620352        2.19636792802049
H           -5.43545627283709        3.31197899023354        2.41518799814944
H           -2.87628736646404        4.70663416855773        1.35508324816807
H           -3.46686073222704        4.84318078447968       -0.30869883613885
H           -4.55690399179506        5.12771406110243        1.04242795963748
H           -0.69397493252383        2.98450082737539        2.58434414525826
