72
 energy: 25.729289950327 xtb: 6.6.1 (8d0f1dd)
N           -1.60465902652413        2.97287980269837        2.23069004077376
C           -1.66277507016086        2.21649333068736        1.21833817789566
C           -2.84282403694282        2.09085411418290        0.29005387368771
C           -3.38602654662170        0.67181088960618        0.35103709427500
C           -4.37642603541391        0.25328954767607       -0.53960758530571
C           -4.91117379292384       -1.02176097297521       -0.49392658570806
O           -5.88555843832323       -1.49753005568140       -1.32714842265457
C           -6.46772234690034       -0.60555566221484       -2.24022213351023
C           -4.44995801978371       -1.94069310943644        0.47171179744393
O           -5.03904207884897       -3.17391452986094        0.44183580075932
C           -4.69647444637340       -4.09146593738394        1.44492255645527
C           -3.46763972865969       -1.52720818139537        1.35165690845966
C           -2.94629211475163       -0.23929246238470        1.29133118934845
C           -2.34585224030081        2.38420775947650       -1.15933683416564
C           -1.42312492204818        1.31617226666367       -1.78614695887115
C           -0.09602707103970        1.28633055326219       -1.09140366847010
N            0.61227379877960        0.06825938217390       -0.91943117878641
C            2.01724189004963        0.08283830003662       -0.58265303662373
C            3.05476338326841       -0.41051208693334       -1.66693159874321
C            4.49359576424783       -0.71555118339263       -0.82525204352037
C            5.22538563330042        0.45522361449630       -0.93470764744994
C            6.51709219163127        0.64482547510037       -0.48407762951928
C            7.16914625882681       -0.36487670386671        0.18391706307208
O            8.46385690155172       -0.30199551788121        0.60954689379030
C            9.20195815670455        0.86063409891902        0.31913583777653
C            6.45408525543683       -1.55406048432429        0.45872448240728
O            7.20672672134440       -2.45993776783924        1.15722752189729
C            6.66720047468979       -3.71109386159710        1.47965111507909
C            5.14059746380688       -1.72236248031153       -0.01693024294187
C           -0.06476751287538       -1.20740380055188       -0.94411939607172
C           -3.99845118029570        3.05612070167756        0.65833402664845
C           -4.54874555740216        2.72583614056856        2.04343890872038
C           -3.56514494016416        4.51942275468596        0.61771452294303
H           -4.73984836374628        0.94366810111961       -1.28242491402663
H           -6.91019302808407        0.25883539173806       -1.73041027756337
H           -7.25235682597853       -1.17123729561273       -2.74082238791823
H           -5.74462283742471       -0.25538493803252       -2.98617080794589
H           -4.90835717208775       -3.69063491067886        2.44241531335983
H           -5.32121796839668       -4.96420969959317        1.26111076848834
H           -3.64182920621600       -4.38674586401247        1.39219206756652
H           -3.09126254562856       -2.19971609519416        2.10436015886889
H           -2.19045247771730        0.05139121838708        2.00212497163784
H           -3.21161966735135        2.51285509986816       -1.81135578964606
H           -1.81050267011845        3.33253485476368       -1.13949533281092
H           -1.93257517880612        0.35888904868735       -1.71977166634717
H           -1.30638364777261        1.52249797877870       -2.86498150837704
H           -0.80054344356843        1.63145079406521        0.82083956224032
H            0.51638098940945        2.17371275979453       -1.24431579083840
H            2.20293451932662       -0.54288095878666        0.29627902251689
H            2.22768934434816        1.11458363613336       -0.29287278667147
H            3.03284372318587        0.35723482577645       -2.50897701174958
H            2.66826231007305       -1.35375404546064       -2.05643918402184
H            4.74695316926645        1.26775686018488       -1.43675710338521
H            7.01842365061251        1.57213614451567       -0.69887424813755
H            8.75940281315206        1.74961258552804        0.78383127623265
H            9.29601732122452        1.02341436698361       -0.76132129577964
H           10.19306042398906        0.70008990029063        0.73868907713845
H            7.46485012282627       -4.25942625434278        1.98337696181414
H            5.81512428874982       -3.61130532992640        2.15891297063784
H            6.36718480112924       -4.26690823534380        0.58711626911386
H            4.65438928840510       -2.64621808907005        0.27141597170310
H           -0.31245935911656       -1.50074389610472       -1.96949256719556
H           -0.99774339875529       -1.18825775795149       -0.36953760592650
H            0.58105313840155       -1.97983811504470       -0.52823087049737
H           -4.80193589778709        2.91754273680196       -0.07699892655526
H           -3.76689285053610        2.86135768833132        2.78784963369045
H           -4.88363118833015        1.69173123123465        2.08339878835324
H           -5.38758814722068        3.38161173583447        2.26899505599566
H           -2.74333064063753        4.66649915256774        1.30839062186379
H           -3.25476574932833        4.81274363389630       -0.38019946305912
H           -4.39431602353890        5.15777760883236        0.91648573641113
H           -0.71204693786300        2.93652105541680        2.72041285657043
