72
 energy: -99.627931858879 xtb: 6.6.1 (8d0f1dd)
N           -1.36748945322008        3.31021020390102        1.89619739812533
C           -1.62897384268722        2.37990000112975        1.06749480238081
C           -2.94213040811348        2.21719830914434        0.38411965397202
C           -3.42241338051800        0.77755064747821        0.36613628850583
C           -4.33172266552220        0.36363719240677       -0.60769533030393
C           -4.80019342443449       -0.93549336029361       -0.65467930325212
O           -5.68894864108394       -1.42637336826004       -1.57134752946425
C           -6.23988526845892       -0.54260967222282       -2.50606386690220
C           -4.36667369385982       -1.86749139211165        0.31362435393757
O           -4.88134635521066       -3.12912721777917        0.18732828293077
C           -4.55389336820234       -4.07935444521084        1.17191460749382
C           -3.48496892818796       -1.45304588533598        1.29462987576663
C           -3.01492573848055       -0.14477584808789        1.31498697668494
C           -2.37279546008723        2.66609011131808       -0.87769027083863
C           -1.16658338870231        0.65855152166361       -2.15967504711745
C            0.00577769501880        0.80387831295983       -1.50402227442923
N            0.66330307200258       -0.32178997939380       -0.80101806565335
C            1.98793661996100       -0.13804638326219       -0.25089072960603
C            2.96164182536280       -0.77891989932547       -1.24681926390642
C            4.37463484450853       -0.59203772299070       -0.82482249574907
C            5.03480646846373        0.59445651611918       -1.08005298021866
C            6.33750655371952        0.77682941695942       -0.64670897176770
C            6.99240462665601       -0.21823084990078        0.05899935421229
O            8.27170587963579       -0.14196366543440        0.52043194324580
C            9.01432215778330        1.01442672743764        0.26306141899781
C            6.31715691274825       -1.42425185047940        0.34590341610260
O            7.04098653831807       -2.35853188013280        1.02648048211672
C            6.43897158110424       -3.59653974553310        1.29380529039158
C            5.01729315126667       -1.58926531176910       -0.09702984593644
C           -0.09466303001467       -1.48028731026456       -0.41298696187474
C           -4.04137506452393        3.14600562591898        0.89791918101999
C           -4.30611699380380        2.82576567081868        2.34868895883035
C           -3.68926449633997        4.61810914143114        0.74394946143650
H           -4.65667531236530        1.07500318957499       -1.34938994613248
H           -6.76710898505022        0.28760512870046       -2.02276954648799
H           -6.95238244117805       -1.13473860421941       -3.07920198469160
H           -5.47452656903140       -0.14177163674830       -3.17640484044188
H           -4.85382274781090       -3.75624924384165        2.17289507193956
H           -5.10494666514420       -4.98053668764982        0.90643693200428
H           -3.48185248196252       -4.30551980913959        1.18084243352268
H           -3.14151865494583       -2.14297833621594        2.04751314806579
H           -2.32713592957569        0.15396599090759        2.08975137896283
H           -2.50409317381775        2.12385197315631       -1.74081525191144
H           -2.01350881273757        3.65022145450719       -1.00565838511954
H           -1.77530162028022       -0.21152530749205       -1.95949579100426
H           -1.35953901746266        1.19417117302477       -3.06131459068680
H           -0.93726263576373        1.60922410227132        0.74989834587936
H            0.70843106281711        1.62463951628962       -1.64624907111239
H            2.11540821919066       -0.53086594839635        0.76909118002015
H            2.21988322513894        0.92897782430885       -0.16075103921233
H            2.77207836943669       -0.29578203231855       -2.20816802316561
H            2.69526966330163       -1.83089329695971       -1.32448762937793
H            4.54121820954602        1.38793781883770       -1.62293103043258
H            6.83389227200550        1.70642280882647       -0.87372573886979
H            8.55818547587380        1.89277878174358        0.72852399747615
H            9.13783084289013        1.18656903061713       -0.81044203099313
H            9.99121550708229        0.83361097419414        0.71324825615315
H            7.20014025634199       -4.17876147239335        1.81036756805142
H            5.56179521470941       -3.49323284624212        1.94208632487421
H            6.14922728268936       -4.11748707158981        0.37489562283850
H            4.47248014497452       -2.49714610781010        0.11145118632164
H           -0.21029362894940       -2.09430695536702       -1.30629578134912
H           -1.08312245375054       -1.20794858366753       -0.03015880105950
H            0.43238215726057       -2.05546662580487        0.34670159819793
H           -4.93395599737548        2.93103072032510        0.30554104191467
H           -3.40922818250464        3.02383752456532        2.92000149491319
H           -4.59077946433522        1.78276095314278        2.45747997344192
H           -5.10662961278390        3.46739616115128        2.69700327383577
H           -2.77254477001936        4.82980629250262        1.26699336568381
H           -3.58988488992030        4.90291374778645       -0.29561331313479
H           -4.47239753228650        5.22052269187789        1.18594408650997
H           -0.45102427290926        3.21421146759170        2.32066938475282
