25
 energy: -42.331764750190 xtb: 6.6.1 (8d0f1dd)
C            3.04313903983136        1.12532135753418        0.18454319629801
N            2.25543593275245       -0.07532439362693        0.07486636639221
C            2.62872601854053       -1.34215996940814        0.16265577151923
N            1.54478950105980       -2.14862813211101        0.01204627046764
C            0.40430148302022       -1.36643609686770       -0.09108804813703
C            0.90639025741133       -0.05195303085392       -0.06694500845783
C            0.02157559225088        1.07133341055205       -0.06309935301233
O            0.33756351279825        2.25692871457064       -0.11285857459910
N           -1.24223352712443        0.60969840504498        0.01476591923268
C           -2.61143040854848        3.06959094874313       -0.04025324803246
C           -1.98029770885974       -0.38449785652954       -0.17806705128745
O           -3.24731798104495        1.75742711006016       -0.00726800410585
N           -0.85358075862608       -1.69096660163797       -0.22892412056730
C           -1.27251963982949       -3.04987742362643       -0.29370645591079
H            3.45807979442031        1.24854233216585        1.16611009213798
H            3.83192994797821        1.13330731749296       -0.53847407006854
H            2.41406641172294        1.97716618199507        0.01670480015965
H            3.57080360115510       -1.72466120613954        0.42248948006189
H           -2.81851485719867        1.69978960827088       -0.80530814209556
H           -2.78046124787822        3.43370773200518        0.86523471694508
H           -1.63476577589560        3.10478998160671       -0.56766736879225
H           -0.93599443947102       -3.58150841806409        0.59203085172648
H           -0.81228723015819       -3.47156867183334       -1.18477562820728
H           -2.35906291750969       -3.06381644683923       -0.38714309813956
H            1.58641173437421       -3.14505346836743        0.05858799821381
