  72
        -99.25875741
 N         -1.9322207665        2.4611646879        2.5932990333
 C         -1.9081889580        1.9504651815        1.4555460129
 C         -3.0111467051        2.0744520855        0.4397939696
 C         -3.6495163759        0.7091824692        0.2006530729
 C         -4.6165335104        0.5770993466       -0.7951973461
 C         -5.2113088652       -0.6637592382       -1.0736659363
 O         -6.1596804544       -0.8814224274       -1.9977484427
 C         -6.6665676323        0.1998439118       -2.7456349615
 C         -4.7309394414       -1.7140613545       -0.3207479042
 O         -2.5685487630       -3.9988248473        2.0174178649
 C         -3.3117921032       -5.0655228401        2.2966158172
 C         -3.8022114127       -1.6572402106        0.6495062979
 C         -3.2520787122       -0.3999759651        0.9354561134
 C         -2.3281091274        2.5411082677       -0.8729070596
 C         -1.4829998399        1.4552236213       -1.5629319107
 C         -0.1914790801        1.1894488593       -0.8900271408
 N          0.3632616682        0.0005170872       -0.7290856759
 C          1.7337849099       -0.1076082762       -0.2848230770
 C          2.6912446660       -0.3574575767       -1.4674040079
 C          4.1173707913       -0.2713391301       -1.0004126184
 C          4.7968725301        0.9368930594       -1.0344630899
 C          6.1040348179        1.0304131243       -0.5841542564
 C          6.7596077500       -0.0857765415       -0.0826305623
 O          8.0220216202       -0.1139275041        0.3762560964
 C          8.8008066459        1.0598969711        0.3306697251
 C          6.0676445644       -1.3298757871       -0.0364769058
 O          6.7758301241       -2.3582643475        0.4632393404
 C          6.1883696942       -3.6364358080        0.5322703843
 C          4.7600288312       -1.3977881817       -0.4937972574
 C         -0.3229208387       -1.2249844460       -1.0637195842
 C         -4.1190260793        3.0802051676        0.8656364863
 C         -4.8589348902        2.5947766467        2.1101289958
 C         -3.5944652009        4.4952556671        1.0927006541
 H         -4.9295739884        1.4378076169       -1.3638355200
 H         -7.1217619222        0.9568548959       -2.1000040305
 H         -7.4309454109       -0.2261744685       -3.3925968984
 H         -5.8885013488        0.6598375885       -3.3635292270
 H         -4.2537351755       -4.7913753367        2.8125594466
 H         -3.5906064181       -5.6271065170        1.3822888050
 H         -2.7740062586       -5.7701680922        2.9596817849
 H         -3.4463494408       -2.5349176960        1.1933736489
 H         -2.5383236221       -0.3191732895        1.7396472710
 H         -3.0997206856        2.8642640384       -1.5707972250
 H         -1.6962423098        3.4032767527       -0.6563757529
 H         -2.0706684518        0.5456681233       -1.6777904632
 H         -1.2488460922        1.8276869348       -2.5690583100
 H         -1.0410331700        1.3930775779        1.0487732321
 H          0.4230129529        2.0451549374       -0.6472326649
 H          1.8162388421       -0.9261038715        0.4340240097
 H          2.0269392536        0.8186961701        0.2140768096
 H          2.5086396221        0.4009065096       -2.2310656145
 H          2.4932063531       -1.3386443693       -1.8998180120
 H          4.3131304727        1.8180705574       -1.4279111770
 H          6.6083728397        1.9815309095       -0.6309139469
 H          8.3761852915        1.8470737500        0.9609802528
 H          8.9082384799        1.4290856144       -0.6934265805
 H          9.7779401254        0.7768245207        0.7169981911
 H          6.9531217397       -4.2865239658        0.9526345185
 H          5.3114143758       -3.6396822832        1.1870646151
 H          5.9075733848       -4.0024548403       -0.4599322430
 H          4.2311061882       -2.3375239985       -0.4725019315
 H         -0.4618578813       -1.3169385680       -2.1427804018
 H         -1.3008716245       -1.2643518177       -0.5786241078
 H          0.2600980215       -2.0727418232       -0.7144026639
 H         -4.8390931473        3.1209092077        0.0406747725
 H         -4.1957094516        2.6143151565        2.9687884524
 H         -5.2307891290        1.5817960160        1.9773044279
 H         -5.7045050019        3.2470972034        2.3101803590
 H         -2.8456471802        4.5011225319        1.8787828682
 H         -3.1694277781        4.9204673919        0.1871105439
 H         -4.4173503909        5.1327499373        1.4049767716
 H         -1.1233506989        2.3416842549        3.1940481796
