25
 energy: 0.000000000000 xtb: 6.6.1 (8d0f1dd)
C            3.23720163006194        1.16630919979326        0.08434469647475
N            2.29877817382611        0.07527477071623        0.03981603040599
C            2.58028210190900       -1.21425402444508        0.03006176031096
N            1.43813958087363       -1.93419271955128        0.00098261760884
C            0.39035688448383       -1.05887472636071       -0.00790371836672
C            0.93510056364412        0.21347819449412        0.01709077491437
C            0.09450143893243        1.40504303904423       -0.00410947031874
O            0.49712751527797        2.54126714362870       -0.00342325688240
N           -1.25076640035757        1.06271879480407       -0.03085478223738
C           -2.21907211982101        2.15522099834493       -0.05001256985998
C           -1.81739487048744       -0.20012725993278       -0.04692818574614
O           -2.99983886758376       -0.37846417018721       -0.07008878229737
N           -0.92618586207120       -1.30210215599479       -0.03682761578324
C           -1.46982264913417       -2.64643102187190       -0.06029820460571
H            3.71247264356769        1.21471455160235        1.06488849150277
H            4.00791497605742        1.03430808813993       -0.67357694370751
H            2.69910007168542        2.09770118228144       -0.09130154882931
H            3.56654120610678       -1.63682992603973        0.04233140067262
H           -1.67107961066214        3.09322851271934       -0.02552706933167
H           -2.82428953597071        2.09428624779827       -0.95318082946668
H           -2.87644029173232        2.07745725625962        0.81450067533302
H           -1.17061996399332       -3.19584890659852        0.83242232437030
H           -1.14560257411436       -3.17511610292205       -0.95688275822323
H           -2.55549792440841       -2.55659984320617       -0.07459039797972
H            1.38130855184625       -2.94313852034425       -0.01389874181052
25
 energy: -3.698996708203 xtb: 6.6.1 (8d0f1dd)
C            3.27514643019231        1.17428363399781        0.05210440598702
N            2.31656018996235        0.09284814275347        0.03119789972815
C            2.59336881296186       -1.23893441153921        0.04969369821698
N            1.41815649612649       -1.94349095791664        0.02512521545348
C            0.38969672201220       -1.05777373276023        0.00504192089856
C            0.93111114451249        0.22032605526045        0.02812344524826
C            0.09499740552177        1.39091955541652        0.00792577700560
O            0.48907243019641        2.55693074126560        0.01095461880120
N           -1.26824110879003        1.04701592268056       -0.02847745664147
C           -2.23033207944828        2.14304373117647       -0.05245248845401
C           -1.83212578642794       -0.20372618131200       -0.05258121124395
O           -3.02855134521905       -0.38579042777866       -0.08802919382669
N           -0.94239412809144       -1.30339525932334       -0.03493029977720
C           -1.48446154785342       -2.64517537486930       -0.06768537222219
H            3.80233630877465        1.16778127885376        1.00175593049687
H            4.08153478198269        1.18427937529985       -0.73305462822553
H            2.70275401899611        2.10110623571318       -0.02611229639964
H            3.56663559519150       -1.67166808836101        0.08459506161417
H           -1.67209338930246        3.07631758790678       -0.02935558903504
H           -2.83527568698493        2.08721765678961       -0.95718342864904
H           -2.89051822495041        2.07509791785927        0.81178413339859
H           -1.19223469285029       -3.20088567606712        0.82526980888619
H           -1.15065018076787       -3.17518130710714       -0.96202705961571
H           -2.57002343856268       -2.55437770602533       -0.09222196954618
H            1.34774594075414       -2.94774010974129        0.01757297404885
25
 energy: 2.627680747178 xtb: 6.6.1 (8d0f1dd)
C            3.32168491759235        1.18188099057094        0.01015719105445
N            2.34015251346034        0.11024406355143        0.01298168604008
C            2.59985472882721       -1.26212954311785        0.08154999759839
N            1.39371943377804       -1.94502541436169        0.06383684193600
C            0.38850394663534       -1.05262877064495        0.02524219940562
C            0.92928060092251        0.23147228831137        0.03404039052686
C            0.09588950131249        1.37090943623517        0.02118833400867
O            0.46447763505357        2.55850284429996        0.03650376010390
N           -1.29090137330523        1.03004327736486       -0.02622802967357
C           -2.24573915594144        2.12956482859904       -0.05591913280839
C           -1.84421640728310       -0.20829827037129       -0.06260155785200
O           -3.04646811190615       -0.39747143421756       -0.11792268845972
N           -0.95883395135265       -1.30204438299518       -0.03080856701021
C           -1.50105214617855       -2.64211548081781       -0.07921259621855
H            3.95494435000794        1.07424318850522        0.90069418260251
H            4.14186289358107        1.38952501555397       -0.83402525507659
H            2.71168793367235        2.10754443171786        0.08593174158861
H            3.55703534589229       -1.71070704300223        0.16041091791857
H           -1.67803035146727        3.05805244954768       -0.03592576482377
H           -2.85132780591980        2.07535919756747       -0.96130091670588
H           -2.90992270663299        2.07184468707956        0.80713057944870
H           -1.22664478067275       -3.20898650808745        0.81430477387005
H           -1.15683923331276       -3.17405282886160       -0.97057150851200
H           -2.58692162559349       -2.54954035391465       -0.12108300263473
H            1.31001851676677       -2.94715806634023        0.06866031982032
25
 energy: 10.193238983951 xtb: 6.6.1 (8d0f1dd)
C            3.35691073524167        1.18742368278500       -0.02093169959319
N            2.35450653766197        0.12250627865016       -0.00280158405000
C            2.59686337896378       -1.26699628754908        0.10547612703896
N            1.38195186106751       -1.93917446385288        0.09949324532962
C            0.38580447770188       -1.04669167659993        0.03940771633964
C            0.92930570595865        0.24146280121908        0.02933467164474
C            0.09061051133495        1.36695978499606        0.03064775927472
O            0.43599810368012        2.56063970463477        0.06390249140144
N           -1.30848045769101        1.02353744349022       -0.02301035148457
C           -2.26285784166973        2.12039254263710       -0.05619300087979
C           -1.85320050162640       -0.21383836608675       -0.07316768166862
O           -3.05492672641930       -0.41056296958410       -0.14548650112671
N           -0.96623300220056       -1.30123326217864       -0.02754494910432
C           -1.51091076461501       -2.64075669226260       -0.09154478731300
H            4.08882310095689        0.98380340372680        0.79521522691561
H            4.15898099532648        1.51852605855508       -0.91333108984435
H            2.75559211330394        2.11173014159729        0.18123100013892
H            3.54428961691961       -1.72934618278315        0.23801445296783
H           -1.69319429878175        3.04715102838394       -0.03909946313582
H           -2.86886741374338        2.06171332554522       -0.96136323711003
H           -2.92837664236301        2.06560560424318        0.80629538419410
H           -1.25716761848047       -3.21675307159400        0.80277422719509
H           -1.15843027199527       -3.17098593324264       -0.98105778845374
H           -2.59692198529191       -2.54405557231905       -0.15086023052264
H            1.29214505469641       -2.94202872023905        0.12163395799340
25
 energy: 13.336577562129 xtb: 6.6.1 (8d0f1dd)
C            3.38010355726581        1.18650606210680       -0.03857666628704
N            2.36055884137575        0.12913172894270       -0.01432299029830
C            2.59063038808076       -1.26017970097140        0.11636491426902
N            1.37981829490369       -1.93025704982085        0.12341395735790
C            0.38243300209893       -1.04096245486812        0.04443303875643
C            0.92983516195256        0.24825303950661        0.01535573340673
C            0.08374097191919        1.37222690086899        0.03549660609089
O            0.41343765092713        2.56211086610943        0.08613557840686
N           -1.31873890963103        1.02298541458277       -0.01845097232197
C           -2.27705984590984        2.11484948434293       -0.05199887882304
C           -1.85891762703007       -0.21830935159181       -0.08002843404997
O           -3.05717633258328       -0.41928488428003       -0.16415436600929
N           -0.96775849508650       -1.30083738040505       -0.02561341096207
C           -1.51484049099084       -2.64059968730412       -0.10156049330338
H            4.15175240630139        0.92863282600521        0.70869741910617
H            4.16925412114188        1.57480778055011       -0.94602047395289
H            2.81750336051704        2.10015899942598        0.22765731345832
H            3.53078958409188       -1.72908399312032        0.30122941903562
H           -1.71113077117889        3.04304649264541       -0.03746659219905
H           -2.88488452284231        2.05029335204206       -0.95565028310443
H           -2.94142701815425        2.05909308848218        0.81127232543897
H           -1.27718596411731       -3.22210688537652        0.79294277958962
H           -1.15661208233193       -3.16766383631535       -0.99000657902914
H           -2.60052412458423       -2.53962216948069       -0.17329338370757
H            1.28861351180051       -2.93416003990486        0.16117833527891
25
 energy: 13.287209375009 xtb: 6.6.1 (8d0f1dd)
C            3.38782333923757        1.18327317029669       -0.04167242381803
N            2.35895243870974        0.13172614530282       -0.01984877025045
C            2.58515811659354       -1.24610013736418        0.10954399593401
N            1.38407447624597       -1.92051670733030        0.13517779330304
C            0.37921085900047       -1.03624812814102        0.04424648434468
C            0.92909995921298        0.25166996168206        0.00011090199305
C            0.07959620440394        1.38088747183904        0.03531244661145
O            0.40200336737796        2.56348627975605        0.09679452247763
N           -1.32053748742906        1.02459222270705       -0.01697384606876
C           -2.28381141758362        2.11245138550979       -0.05307531009005
C           -1.86094644846436       -0.22075599229148       -0.08281527930323
O           -3.05560260283285       -0.42123126637338       -0.17544447091371
N           -0.96586783511767       -1.30087953942061       -0.02248203457568
C           -1.51340593767158       -2.64144837417874       -0.10325938425085
H            4.18244026706547        0.86717656652210        0.64057893672973
H            4.14860022750968        1.59558631325794       -0.96595788813636
H            2.85932897916169        2.08626983736164        0.29125026520933
H            3.51854334597041       -1.71119546871521        0.33891393308338
H           -1.72421473910038        3.04414062684946       -0.04191072946120
H           -2.89318124557337        2.04151428368865       -0.95523058155337
H           -2.94669313298775        2.05671816411228        0.81141696504641
H           -1.28402383884380       -3.22236279013376        0.79208725379911
H           -1.15069976771644       -3.16708620384765       -0.98973599933750
H           -2.59831587151519       -2.53802657585684       -0.18147138825083
H            1.29468341228267       -2.92461264306032        0.18147850362551
25
 energy: 11.778342296837 xtb: 6.6.1 (8d0f1dd)
C            3.38450276408960        1.18148227244234       -0.03593438526255
N            2.35324109901107        0.13377763539897       -0.02165715227337
C            2.58325483467143       -1.23515885703424        0.09738629225029
N            1.38732851731687       -1.91412178487317        0.13591486589316
C            0.37724294513505       -1.03311309288594        0.04178757889292
C            0.92645461394504        0.25361577240071       -0.01016594105189
C            0.07816872787668        1.38605248459901        0.03136501825686
O            0.39960464041991        2.56642976839434        0.10029608462163
N           -1.31842296109561        1.02493974443028       -0.01922674610297
C           -2.28419318673691        2.11169997871545       -0.05597475984471
C           -1.86079447477189       -0.22116590445104       -0.08350833183516
O           -3.05395707224676       -0.41964763286980       -0.17834886564970
N           -0.96441317290186       -1.30082541527748       -0.02032799210522
C           -1.51021625637799       -2.64242928305964       -0.09989408351377
H            4.19092828822201        0.82690921764876        0.60202762676083
H            4.11916923796103        1.59545047232690       -0.96592958006028
H            2.88045879985537        2.07405058234276        0.33468047032648
H            3.51254958776767       -1.69227204210878        0.35609160922861
H           -1.72778531531089        3.04551657145876       -0.04672322846633
H           -2.89422210131541        2.03820794159408       -0.95733701789647
H           -2.94586249413010        2.05660273160927        0.80957240924183
H           -1.28065648658235       -3.22068367425349        0.79643920731289
H           -1.14506724318954       -3.16835446720181       -0.98482641443285
H           -2.59469035238823       -2.54003880674568       -0.17930024797954
H            1.29959172871181       -2.91789561042851        0.18062747983664
25
 energy: 10.595697761820 xtb: 6.6.1 (8d0f1dd)
C            3.38077334673452        1.18111960422045       -0.03149521741574
N            2.34888395780626        0.13601111695958       -0.02533130559174
C            2.58456786653344       -1.23142947318566        0.08483967961760
N            1.38823877004516       -1.91207838103254        0.13398755196204
C            0.37716498790303       -1.03166841297292        0.04049800470951
C            0.92430066439717        0.25492618291170       -0.01401127857559
C            0.07772351916469        1.38749168046557        0.02902619296101
O            0.40099377116026        2.56865144768525        0.09853129362299
N           -1.31694413761663        1.02494602665533       -0.02235309349636
C           -2.28310506175350        2.11203424817027       -0.05991217250175
C           -1.86013740198737       -0.22051238884894       -0.08334798211892
O           -3.05352824486708       -0.41849971384832       -0.17774902692460
N           -0.96379881388621       -1.30054582131520       -0.01857833166350
C           -1.50779373999408       -2.64277907602240       -0.09553277450423
H            4.19560747212726        0.80008436241468        0.58053240037134
H            4.09371356060033        1.60002930779356       -0.96435681608726
H            2.88715459690577        2.06834908414947        0.37193366201420
H            3.51121539178138       -1.68200132009715        0.36460589632146
H           -1.72677924805526        3.04613114757352       -0.05104135289722
H           -2.89272289894181        2.03806442502138       -0.96134975532613
H           -2.94442803030503        2.05753618482203        0.80588310945386
H           -1.27553441405422       -3.21904086714330        0.80171008965064
H           -1.14185584287464       -3.16971541037961       -0.97968361380836
H           -2.59225897344558       -2.54230574855969       -0.17428163747291
H            1.30076357055814       -2.91576960326497        0.17451037384696
25
 energy: 9.129322533914 xtb: 6.6.1 (8d0f1dd)
C            3.37741815284051        1.18086238938497       -0.02626842456861
N            2.34490004642543        0.13783368584292       -0.02944640354500
C            2.58782881195569       -1.23144198287842        0.07043272652014
N            1.38849596480601       -1.91215035467938        0.13049114107171
C            0.37832038415828       -1.03111739236140        0.03978025435464
C            0.92294358503588        0.25553430467874       -0.01427446485204
C            0.07716333447453        1.38728391510077        0.02776693217328
O            0.40429982268932        2.56968458235755        0.09444223461166
N           -1.31560883271911        1.02528445815155       -0.02520313175214
C           -2.28152012828107        2.11312648943297       -0.06238289141992
C           -1.85893317374140       -0.21926392213602       -0.08241882355220
O           -3.05303717655179       -0.41777451747963       -0.17417937545339
N           -0.96299440637938       -1.29997680925221       -0.01732008135023
C           -1.50564629161335       -2.64251944332951       -0.09181601295654
H            4.18847953267633        0.79314563026635        0.56860449635417
H            4.07249775797329        1.60076467652272       -0.95066872298301
H            2.89275367081348        2.05755345567829        0.38700811850471
H            3.51144063996703       -1.67483441755716        0.37110393987107
H           -1.72388004423732        3.04660493332765       -0.05266847374544
H           -2.89035233925022        2.04011334419872       -0.96421573207834
H           -2.94281359663907        2.05832743062028        0.80326009950908
H           -1.26960194473762       -3.21777791895445        0.80581584218010
H           -1.14020613709773       -3.17018012086659       -0.97604525351414
H           -2.59032402134849       -2.54412389692586       -0.16872160219357
H            1.30059105671669       -2.91592991697079        0.16395750496131
25
 energy: 8.813324172115 xtb: 6.6.1 (8d0f1dd)
C            3.37770980219356        1.18186024120985       -0.02542478817879
N            2.34372592793640        0.13922404426493       -0.03249215447379
C            2.58999558545296       -1.23373358475147        0.06148861502090
N            1.38792711780970       -1.91328058045816        0.12992427250585
C            0.37923937223853       -1.03150069398569        0.04136355135900
C            0.92256176803016        0.25555518790095       -0.01089525822875
C            0.07606877147248        1.38637679530593        0.02792131241618
O            0.40510040484104        2.56938619795999        0.09025980756326
N           -1.31651140901197        1.02571048569487       -0.02655826906501
C           -2.28181300667158        2.11385372666897       -0.06481866141009
C           -1.85881306451499       -0.21883276854632       -0.08200396327748
O           -3.05349776513987       -0.41861458886116       -0.17250541353698
N           -0.96293181747217       -1.29971776705107       -0.01614078105459
C           -1.50530714621700       -2.64218227057574       -0.09009123091871
H            4.19856821182716        0.78283499044914        0.56321572385462
H            4.06122163836066        1.61130743355372       -0.95046415520532
H            2.89299103554310        2.05698376487845        0.40342275862655
H            3.51139300464694       -1.67387860619301        0.37529618191153
H           -1.72306416224175        3.04667671092630       -0.05483671553612
H           -2.88963777140090        2.04085275105246       -0.96729523386216
H           -2.94380444479702        2.05917778034973        0.80020670898606
H           -1.26831446457579       -3.21734670492342        0.80761524302404
H           -1.14030726600740       -3.17019335315826       -0.97447878922899
H           -2.59015587955825       -2.54429512069021       -0.16638136045541
H            1.29987022519196       -2.91719546884870        0.16070649531148
25
 energy: 8.883793632963 xtb: 6.6.1 (8d0f1dd)
C            3.37979293016105        1.18177975912972       -0.02764938936981
N            2.34476481907304        0.13839842696461       -0.03445051949181
C            2.59120370134870       -1.23702709630209        0.05690177530872
N            1.38763805682962       -1.91491903798285        0.12980688389489
C            0.38002352378980       -1.03242253788031        0.04307017728416
C            0.92387485397590        0.25455607597106       -0.00741957644856
C            0.07569889205309        1.38541625705506        0.02802911418181
O            0.40546133370419        2.56809613694240        0.08794572475674
N           -1.31691237973324        1.02621618523525       -0.02618629403446
C           -2.28202435908619        2.11421372077070       -0.06462675739622
C           -1.85857037617516       -0.21879394991023       -0.08145801689895
O           -3.05334245363902       -0.41924496515358       -0.17125211967061
N           -0.96264470994417       -1.29951495316921       -0.01567569240983
C           -1.50589789100644       -2.64165652863288       -0.09041266378373
H            4.19785052149918        0.78896361177554        0.56739459449117
H            4.06325132815496        1.61547006105402       -0.94906911622746
H            2.89077859517703        2.05731168954351        0.40120426470160
H            3.51101639951134       -1.67622989407613        0.37736663441702
H           -1.72307741175060        3.04681267353443       -0.05452598610101
H           -2.88961307069809        2.04127331738544       -0.96732899964088
H           -2.94452523167973        2.05929964369582        0.79997968012747
H           -1.26957909929448       -3.21759554446255        0.80684012544879
H           -1.14162681904382       -3.16935066523538       -0.97527549047271
H           -2.59082051615846       -2.54308953184827       -0.16655318787108
H            1.29949403086742       -2.91893425223200        0.16037873135209
25
 energy: 8.683989140610 xtb: 6.6.1 (8d0f1dd)
C            3.38177232832400        1.18222229211315       -0.03009152075765
N            2.34548943653707        0.13760588420519       -0.03672557689005
C            2.59265301333346       -1.24033807101348        0.04808746671568
N            1.38758837362387       -1.91625137144708        0.12937751054655
C            0.38072333976003       -1.03311382004958        0.04564754478854
C            0.92547581863336        0.25349529030994       -0.00303600078935
C            0.07505615541596        1.38467498215028        0.02781116155418
O            0.40549392639883        2.56683122070731        0.08625488705675
N           -1.31696411812704        1.02678006981969       -0.02546836775651
C           -2.28220113657982        2.11434632532103       -0.06402595675059
C           -1.85827409693433       -0.21892801489946       -0.08078564611128
O           -3.05302718117182       -0.41966441733540       -0.17041101663043
N           -0.96214159622936       -1.29912898171075       -0.01478068146137
C           -1.50638193981515       -2.64106062869800       -0.09097887223074
H            4.19884586474941        0.79525801082376        0.57260625336714
H            4.06330850629610        1.61735293129287       -0.94556397619362
H            2.88947073236478        2.05633890139612        0.39397268457251
H            3.50919181801624       -1.67665218111208        0.38424945975174
H           -1.72357472423163        3.04701722469752       -0.05380747198847
H           -2.88968792223893        2.04138101873695       -0.96689194068295
H           -2.94516349314094        2.05896066601380        0.80020997857705
H           -1.27118280703502       -3.21804282771946        0.80560611043219
H           -1.14262913019417       -3.16804718006843       -0.97642616191199
H           -2.59134755942785       -2.54165334516714       -0.16729268641569
H            1.29972105960894       -2.92035537619467        0.15949671535562
25
 energy: 8.510195149489 xtb: 6.6.1 (8d0f1dd)
C            3.38376162627963        1.18266286671485       -0.03256204354722
N            2.34622010090144        0.13680003724831       -0.03903075810212
C            2.59411613896690       -1.24367668867163        0.03916215985686
N            1.38753945695380       -1.91759278723348        0.12893540341326
C            0.38142772929110       -1.03380735832420        0.04824677216051
C            0.92709273228754        0.25242557994704        0.00137406379852
C            0.07441607307233        1.38392866385252        0.02759219604648
O            0.40553254848422        2.56555743815288        0.08456151660219
N           -1.31700549066430        1.02734641756185       -0.02474151695427
C           -2.28237101654311        2.11447815596924       -0.06342315848460
C           -1.85797156070700       -0.21906325405509       -0.08010610295610
O           -3.05270517345452       -0.42007838304691       -0.16957111335917
N           -0.96163221389482       -1.29873885470656       -0.01387184356744
C           -1.50686613658104       -2.64046046001273       -0.09154201896512
H            4.19981801773715        0.80159219513211        0.57786973439496
H            4.06335501009459        1.61923647057432       -0.94204681282035
H            2.88812946289616        2.05536688834370        0.38671357996447
H            3.50733601173563       -1.67705957233040        0.39121636249537
H           -1.72407283319445        3.04722519088237       -0.05308746393083
H           -2.88975665861351        2.04148380472261       -0.96645322465908
H           -2.94579783105607        2.05862008236735        0.80044039951643
H           -1.27279645621288       -3.21849238433562        0.80437130846137
H           -1.14363135055880       -3.16673350028991       -0.97757648076134
H           -2.59187470342979       -2.54020651614518       -0.16803661115622
H            1.29995118414579       -2.92178543014533        0.15859954870076
25
 energy: 8.483138491131 xtb: 6.6.1 (8d0f1dd)
C            3.38223294643305        1.18189581681525       -0.03173231895715
N            2.34573241820731        0.13684996358750       -0.03844930672806
C            2.59320810882457       -1.24124025920410        0.04195654372849
N            1.38775082841256       -1.91632589225126        0.12900285973723
C            0.38078812153914       -1.03297672828224        0.04670245250862
C            0.92630356096537        0.25316351121428       -0.00257499153227
C            0.07530801779093        1.38471419320198        0.02760219363002
O            0.40566673468634        2.56655873029815        0.08677048574380
N           -1.31614494732985        1.02683156610645       -0.02502314662621
C           -2.28177370684789        2.11412600661962       -0.06374108155420
C           -1.85792819956636       -0.21905441423741       -0.08067159861373
O           -3.05255262410977       -0.41914919968294       -0.17106435037685
N           -0.96176774254388       -1.29890359394611       -0.01399872188501
C           -1.50629094389091       -2.64089867705446       -0.09086684624084
H            4.19690454010081        0.79645708117876        0.57365602223334
H            4.06230522771023        1.61682257338046       -0.94533320702972
H            2.88870825012613        2.05566673892687        0.39360363102199
H            3.50699362391022       -1.67493744764982        0.39007208126266
H           -1.72382626435658        3.04718528736149       -0.05364256582155
H           -2.88945926616676        2.04089724021282       -0.96649093193692
H           -2.94471453389613        2.05861317866552        0.80054493223506
H           -1.27171044539152       -3.21815186818812        0.80554506374171
H           -1.14228612993107       -3.16754512204375       -0.97636125675114
H           -2.59119831341729       -2.54117123070831       -0.16767705173683
H            1.29996540667732       -2.92039885214854        0.15920500609484
25
 energy: 8.395135084324 xtb: 6.6.1 (8d0f1dd)
C            3.38156125478720        1.18161814873622       -0.03190078910586
N            2.34559827803737        0.13657773906066       -0.03862783366050
C            2.59318086228612       -1.24076006680514        0.03997633701935
N            1.38778300826779       -1.91579005921626        0.12880547806968
C            0.38051771233671       -1.03248443867339        0.04659911172400
C            0.92625895917346        0.25339965816442       -0.00396886613006
C            0.07574739631953        1.38505690498050        0.02786566145138
O            0.40558684459542        2.56687881884512        0.08836626043006
N           -1.31553161241343        1.02659538882834       -0.02476651112138
C           -2.28140916948745        2.11386148551268       -0.06360798278365
C           -1.85780056960855       -0.21916771387942       -0.08092867160770
O           -3.05232709883330       -0.41860010302376       -0.17231606246353
N           -0.96168780160112       -1.29888663950992       -0.01368390522125
C           -1.50597898790526       -2.64103794676791       -0.09066464620242
H            4.19624768187555        0.79499336733469        0.57287604615344
H            4.06165506818418        1.61522439691718       -0.94667815426636
H            2.88863175844417        2.05540363007613        0.39409450582801
H            3.50529999116454       -1.67289298487030        0.39349062291135
H           -1.72383172160079        3.04717916052824       -0.05363150377301
H           -2.88925672946021        2.04037068250531       -0.96620892380223
H           -2.94413267470751        2.05842360211452        0.80087482077664
H           -1.27150113696334       -3.21813629109868        0.80586194495738
H           -1.14145598998997       -3.16762461279165       -0.97595676084973
H           -2.59080340887812       -2.54139618400426       -0.16790330855286
H            1.29986275391295       -2.91977734079125        0.15906702636657
25
 energy: 8.102065627817 xtb: 6.6.1 (8d0f1dd)
C            3.38021721669943        1.18092514624936       -0.03354428585755
N            2.34556024253135        0.13537698245580       -0.04052539356155
C            2.59433034106846       -1.24159498407777        0.02867903361891
N            1.38765802820020       -1.91514740240752        0.12737927540323
C            0.38028226811554       -1.03145866870002        0.04690669065076
C            0.92681358312997        0.25358763864869       -0.00645955670376
C            0.07671526061700        1.38557239449959        0.02877296126400
O            0.40543427910091        2.56714522183844        0.09206831802388
N           -1.31400044176857        1.02622340973990       -0.02369512175428
C           -2.28050287097698        2.11335016590522       -0.06281671494122
C           -1.85721660702954       -0.21948148171272       -0.08133267895304
O           -3.05150612767514       -0.41743212031516       -0.17514443772236
N           -0.96116996878319       -1.29870093903901       -0.01248351816896
C           -1.50522697622711       -2.64114092048426       -0.09022049125173
H            4.19430559515929        0.79441404007979        0.57315704445266
H            4.06093696991283        1.61141585189862       -0.94899159985619
H            2.88729294789398        2.05480610442992        0.39214886593530
H            3.49923898253891       -1.66716089265451        0.40951714940316
H           -1.72381096639996        3.04723847945054       -0.05316721877229
H           -2.88868010720011        2.03911754606131       -0.96508339536497
H           -2.94279465405254        2.05796090028194        0.80204543362742
H           -1.27119949273606       -3.21824204804048        0.80632356081749
H           -1.13971153468919       -3.16734542213021       -0.97524889780736
H           -2.58985544990704       -2.54145819365239       -0.16845356089012
H            1.29910415041353       -2.91894220615299        0.15720243455588
25
 energy: 8.151189482638 xtb: 6.6.1 (8d0f1dd)
C            3.38027515764069        1.18104200169325       -0.03329462220469
N            2.34560594575015        0.13544981061322       -0.04004236072882
C            2.59474337941756       -1.24217613949824        0.02868791785377
N            1.38759798936245       -1.91552035765973        0.12741020483937
C            0.38053353700025       -1.03172095592829        0.04695845367479
C            0.92686586497963        0.25341738846641       -0.00568121485056
C            0.07651156199699        1.38536678274780        0.02890547767801
O            0.40547769486043        2.56689634143259        0.09149442076600
N           -1.31431789739229        1.02635703499302       -0.02375170179108
C           -2.28068416287397        2.11352898588721       -0.06283831949308
C           -1.85720612156144       -0.21942841038475       -0.08117443422202
O           -3.05155365994495       -0.41779585866546       -0.17454267701462
N           -0.96109731007452       -1.29872114804384       -0.01259138508102
C           -1.50530673326556       -2.64105241734315       -0.09032273082281
H            4.19471255670746        0.79558761635469        0.57398662391937
H            4.06181042228267        1.61160708510506       -0.94854847430392
H            2.88701442655352        2.05512182623335        0.39082914831865
H            3.49916315093902       -1.66747051892606        0.40904781252075
H           -1.72374706989445        3.04724216859002       -0.05315713153866
H           -2.88873410192307        2.03939634689998       -0.96519076527545
H           -2.94309405901230        2.05812501101943        0.80190782049922
H           -1.27117683607461       -3.21825283989274        0.80615714909570
H           -1.14010172177330       -3.16729142488558       -0.97547258896100
H           -2.58998798435102       -2.54134114807691       -0.16827805476820
H            1.29891063858666       -2.91933857855918        0.15653532803760
25
 energy: 8.270027279692 xtb: 6.6.1 (8d0f1dd)
C            3.38035015932716        1.18124838505918       -0.03275024417682
N            2.34551448027871        0.13582389169991       -0.03961496210568
C            2.59588081363610       -1.24347762991648        0.02724433750492
N            1.38748637312642       -1.91637246789693        0.12675398035924
C            0.38116512559261       -1.03235914162473        0.04621014353504
C            0.92693900819895        0.25301023620043       -0.00467211588261
C            0.07593087679643        1.38492621125839        0.02878430653979
O            0.40561035001897        2.56635111627947        0.08985117327149
N           -1.31507969287158        1.02672186503953       -0.02405609177024
C           -2.28114000153221        2.11398916950565       -0.06278130464959
C           -1.85718547645089       -0.21924384835803       -0.08066681849353
O           -3.05168704466206       -0.41868862737167       -0.17243680160939
N           -0.96087973468867       -1.29874700534661       -0.01307169029479
C           -1.50545190531452       -2.64083454448523       -0.09044841907880
H            4.19508283856216        0.79715952426369        0.57468077349737
H            4.06375541119067        1.61264497140312       -0.94778260454190
H            2.88680926610145        2.05596409716632        0.38936358894959
H            3.49932080741548       -1.66821375190421        0.41212108314474
H           -1.72363725902835        3.04730686051763       -0.05305268606639
H           -2.88904155513116        2.04014233456065       -0.96525121571989
H           -2.94367580282340        2.05849981752458        0.80179380152475
H           -1.27082253965501       -3.21819230748472        0.80586552823524
H           -1.14118636360212       -3.16722275374900       -0.97592900519475
H           -2.59027873246272       -2.54111569737038       -0.16749001560820
H            1.29843526591351       -2.92029210279848        0.15436915477773
