25
 energy: 0.000000000000 xtb: 6.6.1 (8d0f1dd)
C            3.23720163006194        1.16630919979326        0.08434469647475
N            2.29877817382611        0.07527477071623        0.03981603040599
C            2.58028210190900       -1.21425402444508        0.03006176031096
N            1.43813958087363       -1.93419271955128        0.00098261760884
C            0.39035688448383       -1.05887472636071       -0.00790371836672
C            0.93510056364412        0.21347819449412        0.01709077491437
C            0.09450143893243        1.40504303904423       -0.00410947031874
O            0.49712751527797        2.54126714362870       -0.00342325688240
N           -1.25076640035757        1.06271879480407       -0.03085478223738
C           -2.21907211982101        2.15522099834493       -0.05001256985998
C           -1.81739487048744       -0.20012725993278       -0.04692818574614
O           -2.99983886758376       -0.37846417018721       -0.07008878229737
N           -0.92618586207120       -1.30210215599479       -0.03682761578324
C           -1.46982264913417       -2.64643102187190       -0.06029820460571
H            3.71247264356769        1.21471455160235        1.06488849150277
H            4.00791497605742        1.03430808813993       -0.67357694370751
H            2.69910007168542        2.09770118228144       -0.09130154882931
H            3.56654120610678       -1.63682992603973        0.04233140067262
H           -1.67107961066214        3.09322851271934       -0.02552706933167
H           -2.82428953597071        2.09428624779827       -0.95318082946668
H           -2.87644029173232        2.07745725625962        0.81450067533302
H           -1.17061996399332       -3.19584890659852        0.83242232437030
H           -1.14560257411436       -3.17511610292205       -0.95688275822323
H           -2.55549792440841       -2.55659984320617       -0.07459039797972
H            1.38130855184625       -2.94313852034425       -0.01389874181052
25
 energy: -2.189907662045 xtb: 6.6.1 (8d0f1dd)
C            3.23082719907475        1.17513246574762        0.07455940982888
N            2.30092961695398        0.08883338064439        0.03223741530260
C            2.59827655192813       -1.23680530123221        0.03104008070611
N            1.43023663911235       -1.95013623769283        0.00592497715524
C            0.39474261407750       -1.06982269170374       -0.00699112763558
C            0.92381900597854        0.21044204034549        0.01195528884738
C            0.09795781105715        1.38488499770000       -0.00615321058787
O            0.49561876521343        2.54933031425692       -0.01056830580003
N           -1.26352780550407        1.05238211506611       -0.03070095091093
C           -2.18811266347338        2.19352863971404       -0.03316142739923
C           -1.82565315333300       -0.20988321855553       -0.05218890943720
O           -3.02114561634916       -0.40136697070774       -0.07029562268164
N           -0.93516188779274       -1.31597447566126       -0.03582458236288
C           -1.45978014457394       -2.66684969452309       -0.05338651925307
H            3.70521471093026        1.23035349762108        1.05762404384208
H            4.00115616144736        1.03745950598383       -0.68530466510955
H            2.68023917064524        2.09584992282203       -0.10984337739806
H            3.57870994091848       -1.65631135672206        0.04490635309676
H           -1.69965010619023        3.20145197329158        0.04566706993519
H           -2.73924762894557        2.20590408803058       -0.94312184961699
H           -2.94201643044338        2.03508644997419        0.73952012510446
H           -1.15550863922849       -3.21334122752375        0.84216916359387
H           -1.12034585938532       -3.20252226545853       -0.94297871265757
H           -2.54597244875570       -2.59413737176795       -0.07435480134252
H            1.37060886457405       -2.95445997747713       -0.00369596907215
25
 energy: 6.395545818875 xtb: 6.6.1 (8d0f1dd)
C            3.21689659424126        1.18066758778738        0.05556492247625
N            2.29750549116416        0.09682148451672        0.01761433160672
C            2.61273834974456       -1.26218264049254        0.03284599807495
N            1.41887351349723       -1.96633439349571        0.01413491637076
C            0.39764373720360       -1.08612641618646       -0.00411843500014
C            0.90722309261672        0.20199115685490        0.00309303503807
C            0.10132690738056        1.35342311354835       -0.01213923121666
O            0.48438083176904        2.53893424435069       -0.02829781563483
N           -1.28413737512784        1.04619522575176       -0.02435392231628
C           -2.15271997889772        2.24809823857092       -0.00511914724258
C           -1.83516750310777       -0.21867363977764       -0.04928101591953
O           -3.03669895279820       -0.43428874392159       -0.06630701781003
N           -0.94697227145620       -1.33099487250097       -0.03137074657960
C           -1.44165908969458       -2.69470129102999       -0.04171072228391
H            3.69034953325077        1.25428956482484        1.04042013557784
H            3.99015122333877        1.04174520500712       -0.70331653125003
H            2.65241181506021        2.09028129445795       -0.14162009604457
H            3.58813464927627       -1.67423734359859        0.04847496695320
H           -1.73258661619623        3.33578111176860        0.19411682503429
H           -2.58634092271683        2.40818911623438       -0.96622430912201
H           -3.05417465338969        1.96089566539648        0.61588411417840
H           -1.13092853907593       -3.23544705544156        0.85892003962776
H           -1.07804550893906       -3.24111470527081       -0.91958350974078
H           -2.52917554351977       -2.65599191951773       -0.07388374712060
H            1.36318588431296       -2.96819138566449        0.01329085849059
25
 energy: 19.177869599045 xtb: 6.6.1 (8d0f1dd)
C            3.19903777052478        1.18267492317260        0.03621407507373
N            2.28966353574727        0.09457244020482        0.00336288322435
C            2.61692097368445       -1.28112968449009        0.03339212979882
N            1.41199633363436       -1.98037087915156        0.02076578697508
C            0.39674025310521       -1.10451729013056       -0.00077838607512
C            0.89259954197258        0.18925524191278       -0.00514308481033
C            0.09587266424773        1.32978443437925       -0.01976103962868
O            0.46486813118038        2.52413512649590       -0.04859249264048
N           -1.30884112650945        1.04523322914921       -0.00704270535579
C           -2.13512470843075        2.29316391066613        0.02406304391742
C           -1.84685097583996       -0.22785828701728       -0.03455542753805
O           -3.04690187393931       -0.46962446619024       -0.05582936491959
N           -0.95593380796608       -1.34471865155275       -0.02507716152036
C           -1.42184532211102       -2.72166321159516       -0.03213244984258
H            3.66988250865842        1.27649109266254        1.02209935800960
H            3.97709715236797        1.04632943705562       -0.71906051057396
H            2.62446880966456        2.08447062545759       -0.17306605526600
H            3.59293088273646       -1.68497732420678        0.04990483770603
H           -1.76206670663807        3.43323566510554        0.34339473502577
H           -2.41226497973482        2.61614933110599       -0.98821407953950
H           -3.14708798782699        1.91874133174467        0.47697068275304
H           -1.10596349599220       -3.25466243740682        0.87389592915845
H           -1.03278963399862       -3.27283097067232       -0.89935956534935
H           -2.51007591894880       -2.71998671205492       -0.07694872339538
H            1.36588264834819       -2.98286827247214        0.02853148096015
25
 energy: 28.520534844261 xtb: 6.6.1 (8d0f1dd)
C            3.18088359498860        1.18082731542613        0.02427878670601
N            2.27987864132546        0.08403421129221       -0.00620196037004
C            2.61193142601199       -1.29174372831575        0.03316364342098
N            1.40937666958473       -1.99025112145836        0.02395911729407
C            0.39246035249921       -1.12092669733169        0.00134621480795
C            0.88233086031028        0.17525749085713       -0.01150333554578
C            0.08558632844231        1.31655766814215       -0.02928796766415
O            0.44326324462219        2.50745283343531       -0.06861551066200
N           -1.33102683964702        1.05043820025708        0.01712847273150
C           -2.13189654355984        2.32639969918092        0.04300123346874
C           -1.85821372277503       -0.23440305591263       -0.01157264233971
O           -3.05043683146114       -0.49953072569497       -0.04137428919235
N           -0.96154756248688       -1.35458415668254       -0.01996712056879
C           -1.40454674033647       -2.74312815148033       -0.03024599087707
H            3.64650809720684        1.29146154162893        1.01108745061592
H            3.96505338870429        1.04997537078289       -0.72530825580655
H            2.60034766255899        2.07801009003708       -0.19431897339910
H            3.59241690591587       -1.68838204742482        0.05008897169343
H           -1.80267881641613        3.50494186184320        0.42843305180671
H           -2.26624154011935        2.74670694056896       -0.95525468153835
H           -3.17549751238886        1.93238819543565        0.34867778946423
H           -1.08717529072524       -3.27021829151696        0.87981447238987
H           -0.99211918403030       -3.29179371674656       -0.88967477713514
H           -2.49188560498825       -2.77508900046308       -0.08839546477600
H            1.37544368470003       -2.99537212368794        0.03777566162288
25
 energy: 32.397413613940 xtb: 6.6.1 (8d0f1dd)
C            3.16874139377962        1.17653481269516        0.01537443481574
N            2.27196777778404        0.07024614888103       -0.01308314439916
C            2.59969622256218       -1.28829865372447        0.02848556453655
N            1.41267926061870       -1.99247345001342        0.02419018181149
C            0.38564102683072       -1.13019662241585        0.00273954696636
C            0.87911856296680        0.16528548076137       -0.01270016084862
C            0.07266769741997        1.31654211095483       -0.02759083740003
O            0.42345030127211        2.49637368639008       -0.08148170541843
N           -1.34377370014628        1.05550628840689        0.04937065489466
C           -2.14960718374510        2.33217000569080        0.05154698121227
C           -1.86807674553893       -0.23922683565702        0.00743344956212
O           -3.04962738359068       -0.51776771448386       -0.02557007475563
N           -0.96226268383951       -1.35914879356899       -0.01550081230887
C           -1.39753899297016       -2.75242416373054       -0.02855325508972
H            3.62931718420688        1.29397398112450        1.00200871957846
H            3.95625036845580        1.04890843963152       -0.72992163549108
H            2.58807985548603        2.07267349662432       -0.20736397142362
H            3.58652755724003       -1.68073231396182        0.04266353675508
H           -1.85588168348760        3.53511191514107        0.49425270639323
H           -2.11332809454022        2.79997398788900       -0.90599782161502
H           -3.17627841119475        1.95394224536505        0.21263214150558
H           -1.08227751143923       -3.27482155548868        0.88422174762563
H           -0.97293309438717       -3.29217837927418       -0.88499365302468
H           -2.48072848573484       -2.80056661163655       -0.09533546998842
H            1.39039142992789       -3.00037890342824        0.04020677225337
25
 energy: 37.128505787033 xtb: 6.6.1 (8d0f1dd)
C            3.16454385192210        1.17473296430437        0.00193850586672
N            2.26793699650422        0.06518755451873       -0.02304698709344
C            2.59031217132041       -1.27589826992485        0.01652118415494
N            1.41748677560933       -1.98957188706025        0.02090641096549
C            0.37993126462054       -1.13162607500325        0.00754797383653
C            0.87812787859957        0.16327085672106       -0.00707488221421
C            0.06216418841131        1.31842568663469       -0.00474452413886
O            0.40992125658254        2.49489353599285       -0.08641938773052
N           -1.34622574895148        1.04866164805083        0.10239759980800
C           -2.16691306314876        2.31712711617422        0.06077587654099
C           -1.87618892492982       -0.24654283200598        0.03301157784977
O           -3.05283491265706       -0.52742563285578       -0.00257371259096
N           -0.96133344633634       -1.36227651445035       -0.00454284617255
C           -1.40073680213328       -2.75356235596235       -0.02129404430292
H            3.62441851798680        1.28855961356315        0.98751305886551
H            3.95009139457909        1.04395975254077       -0.74384927186628
H            2.58585843717883        2.07086742110006       -0.22022498685960
H            3.58015836437518       -1.66689665471025        0.02276105788015
H           -1.91177432644899        3.53922242627078        0.58597278346785
H           -1.89895424493235        2.84450324904408       -0.89100096818131
H           -3.24367280810887        1.92958697684307        0.03524617623357
H           -1.08595279208332       -3.27452098675422        0.89120433428643
H           -0.97551161120738       -3.28389210792518       -0.87982453258174
H           -2.48069080421077       -2.80000584743112       -0.08849415904694
H            1.40205305539482       -2.99775103550313        0.03432765917062
25
 energy: 35.686316550991 xtb: 6.6.1 (8d0f1dd)
C            3.16575993921403        1.17469746019666        0.00378784678181
N            2.26610394435717        0.06566084966960       -0.02330162533096
C            2.58335529675141       -1.26148209709356        0.01348838633647
N            1.41959056017201       -1.98322358746817        0.01878346980218
C            0.37544219607110       -1.12505754082844        0.01011898648725
C            0.87886212648481        0.16775989677043       -0.00256705730168
C            0.05738562464083        1.32264516379631        0.00399405136008
O            0.41125840945403        2.49627465598372       -0.09071756867245
N           -1.33899500308307        1.04120700122072        0.12342398402568
C           -2.17233104721519        2.30027950197361        0.04725927604705
C           -1.87870973275964       -0.24858594925342        0.04388748883830
O           -3.05517200400963       -0.51957703331733        0.00394391030926
N           -0.96018413022511       -1.36092848377416       -0.00043314866131
C           -1.40716472557293       -2.74936909343681       -0.02389246525517
H            3.62497247026228        1.28155107353673        0.99001003979196
H            3.95055328268489        1.04104035884580       -0.74188208672497
H            2.58966822880075        2.07230596229742       -0.21609531013922
H            3.57301424571727       -1.65650979904462        0.01635530779500
H           -1.94380293746107        3.51960009075160        0.56536930973210
H           -1.85915112680176        2.80211427539387       -0.82920000816520
H           -3.20419685717588        1.93581530841620       -0.02188441574941
H           -1.09313663276774       -3.27346204016157        0.88589153338610
H           -0.98474279418312       -3.27574661245189       -0.88559769649553
H           -2.48825218499549       -2.78721191367479       -0.09014269542543
H            1.40208751957637       -2.99076884617598        0.02643438337533
25
 energy: 36.627352808860 xtb: 6.6.1 (8d0f1dd)
C            3.16534505100094        1.17830033577291        0.00179134121796
N            2.26420185564727        0.07167202118880       -0.02620046690560
C            2.58502947384631       -1.25885454043074        0.01034722404942
N            1.41895860073626       -1.98280874881597        0.01754224795420
C            0.37533052680345       -1.12367449254994        0.01289121073117
C            0.87488248820071        0.17050300576686        0.00000765897131
C            0.05075081915879        1.31902792596933        0.01009169858084
O            0.40560372432112        2.49615974120100       -0.08992102905877
N           -1.34316856401223        1.03284184130380        0.14284225708956
C           -2.17321158085040        2.29550703188820        0.04337023779018
C           -1.88126837453272       -0.25367146730904        0.05270040330423
O           -3.06025761310259       -0.52342787097676        0.01047843275657
N           -0.96138158877696       -1.36405077258586        0.00477098426202
C           -1.40872478116765       -2.75186666189755       -0.02209521118140
H            3.62728635838338        1.28245254814163        0.98786814854779
H            3.94914491012811        1.04287960219277       -0.74513078681834
H            2.58974839303230        2.07650749298635       -0.21647616455181
H            3.57332945166394       -1.65555134734795        0.00955598735450
H           -1.97450298526396        3.51858907434168        0.57537075128589
H           -1.78924879433049        2.81963634336195       -0.81155166952845
H           -3.19833645064740        1.93057956346499       -0.07563399058208
H           -1.09411619123629       -3.28007785865277        0.88536478192378
H           -0.99056445770718       -3.27869802429697       -0.88656787225822
H           -2.49151008008926       -2.78342517066353       -0.08577139606367
H            1.39889447673087       -2.98952096988125        0.02138911727614
25
 energy: 37.655851052129 xtb: 6.6.1 (8d0f1dd)
C            3.16750786634900        1.18169861775426        0.00028563446098
N            2.26389753835522        0.07958406337187       -0.02838905984948
C            2.59074970826350       -1.26124849022862        0.00792568259948
N            1.41705776317787       -1.98387573508749        0.01634697561995
C            0.37826570229625       -1.12137798035050        0.01429471381733
C            0.87190492801235        0.17403405657750        0.00205684004299
C            0.04746335623399        1.31585134376114        0.01578222459581
O            0.40694839881536        2.49662903888012       -0.07780240108983
N           -1.34599431437589        1.02862866033489        0.15687751870789
C           -2.16947767665881        2.29671781551061        0.03536184405348
C           -1.87869690100771       -0.25460065224728        0.05370134259785
O           -3.06218282802074       -0.52100489808754        0.01096508650922
N           -0.96192250397961       -1.36524871313120        0.00839342003983
C           -1.40999988609152       -2.75184354984057       -0.01934086207636
H            3.63415895730826        1.28345705389897        0.98571596902237
H            3.94929861693403        1.04519413221058       -0.74934767714413
H            2.59240015954036        2.08113953036833       -0.21529950491722
H            3.57612209173539       -1.66088714938552        0.00366073831447
H           -2.01304621271919        3.52028273671902        0.57811568620659
H           -1.74258783145152        2.81842016252751       -0.78602358650999
H           -3.20075104070402        1.91929587701953       -0.12333017983140
H           -1.09383763180701       -3.28517365811697        0.88527543433719
H           -1.00029876021896       -3.28228840219663       -0.88737937227393
H           -2.49540475569835       -2.77471257848109       -0.07750293935208
H            1.39063992364804       -2.98964267960898        0.01669036826625
25
 energy: 36.273567628307 xtb: 6.6.1 (8d0f1dd)
C            3.16862233635259        1.18290080280452        0.00048522660846
N            2.26344992830916        0.08282395354410       -0.02780445120427
C            2.59321340634042       -1.26234129043424        0.00785605329064
N            1.41659904563469       -1.98380054671448        0.01573492012716
C            0.37971543964113       -1.12069444618937        0.01332767263308
C            0.87081980725133        0.17494504614404        0.00218324294388
C            0.04443526279415        1.31535425247270        0.01759579289279
O            0.40640739199157        2.49722003374287       -0.06655617593620
N           -1.34959453553608        1.02709753841587        0.15495341462750
C           -2.17383143278132        2.29445845033533        0.03002819743571
C           -1.87734539239284       -0.25614406529769        0.04848623055514
O           -3.06241463647181       -0.52080512000576        0.00501033191499
N           -0.96178256554534       -1.36595925706182        0.00787633116719
C           -1.41052020267714       -2.75132168169061       -0.01788358468327
H            3.63758288433396        1.28360152941648        0.98516699737821
H            3.94907654075250        1.04637438169804       -0.75084073412924
H            2.59442770856250        2.08334475337986       -0.21346971856461
H            3.57768854457006       -1.66228146396493        0.00320408894958
H           -2.02381540501558        3.50660547744217        0.57078229698101
H           -1.73674376861786        2.82146189371013       -0.78657280590642
H           -3.18707243483633        1.92434247085201       -0.11500576835738
H           -1.09242415228125       -3.28472207040889        0.88607116608277
H           -1.00535778059703       -3.28331913987199       -0.88746077452616
H           -2.49662197797846       -2.77072804110326       -0.07216528073168
H            1.38770065613334       -2.98938485904311        0.01603122659839
25
 energy: 35.484898277402 xtb: 6.6.1 (8d0f1dd)
C            3.16876186227599        1.18164428373113       -0.00025774096832
N            2.26325558617445        0.08132970856928       -0.02743641655524
C            2.59232511621522       -1.26233034104117        0.00718800505839
N            1.41690372204109       -1.98336177936832        0.01477221402357
C            0.37948864918625       -1.12099311441281        0.01310480613766
C            0.87175943550147        0.17396649347868        0.00261131506280
C            0.04499496280713        1.31673966223740        0.02020540056544
O            0.40761939777675        2.49734936421341       -0.06250225050927
N           -1.34935529058692        1.02920355678602        0.15498102097937
C           -2.17484406886188        2.29555630617135        0.02882758902612
C           -1.87659535157160       -0.25542596566131        0.04947317148705
O           -3.06090027945726       -0.51957972715131        0.00381094724574
N           -0.96146922561475       -1.36512472449487        0.00822371869897
C           -1.41056485856237       -2.75019626046799       -0.01756496845720
H            3.63789482546556        1.28244159078883        0.98389895956740
H            3.94859215426351        1.04554509384055       -0.75213832178723
H            2.59503669829497        2.08249791441291       -0.21365625664115
H            3.57739316210862       -1.66122191778087        0.00252967239880
H           -2.02374886414100        3.50013003803953        0.57190124915713
H           -1.73497909449618        2.81869031568431       -0.78773335858231
H           -3.19522055695806        1.92653360458010       -0.11709667063204
H           -1.09139693989297       -3.28257900268031        0.88628736905658
H           -1.00532512509684       -3.28110866083505       -0.88735293024826
H           -2.49623590609629       -2.77141516240966       -0.07105866125076
H            1.38882465716148       -2.98926267405788        0.01601603331399
25
 energy: 33.443540789162 xtb: 6.6.1 (8d0f1dd)
C            3.16828970045193        1.18048531640417       -0.00119791191604
N            2.26201139933261        0.08029725751830       -0.02624178068814
C            2.59100409410743       -1.26228827486183        0.00659736096765
N            1.41668925675849       -1.98252158747253        0.01336676045996
C            0.37867566548544       -1.12131208138061        0.01282222865873
C            0.87212421054928        0.17279689573011        0.00269955969834
C            0.04514060162790        1.31827343923050        0.02236330419792
O            0.40930802010669        2.49758549893821       -0.05760132599048
N           -1.35028743944416        1.03208679637153        0.15152943301680
C           -2.17436761254510        2.29962770241768        0.02448960885918
C           -1.87612164844389       -0.25486713495097        0.04944743216837
O           -3.05993769736363       -0.51782700245912        0.00161831825846
N           -0.96193976001398       -1.36384739516754        0.00896611461678
C           -1.41047261146238       -2.74896777548830       -0.01674441540369
H            3.63791639718734        1.28165594798790        0.98220799724914
H            3.94713475150751        1.04449011188171       -0.75398146142248
H            2.59519397044293        2.08201175103803       -0.21396061270328
H            3.57711580107246       -1.65877330014114        0.00235318071504
H           -2.02322674924076        3.48038717373384        0.57616939974571
H           -1.73072493406650        2.82042957285603       -0.78916066136030
H           -3.20157902558385        1.93022571223629       -0.11610095740016
H           -1.08944494106196       -3.28002603629124        0.88686371335893
H           -1.00468393261110       -3.27850289955744       -0.88690886632972
H           -2.49567124779735       -2.77351492718090       -0.06950459944976
H            1.39006839894101       -2.98887615922072        0.01694207684028
25
 energy: 31.161248028114 xtb: 6.6.1 (8d0f1dd)
C            3.16785517821488        1.18025915790536       -0.00179498373101
N            2.26112000512107        0.08026038532902       -0.02523803773770
C            2.59004541169847       -1.26210203044837        0.00616631922317
N            1.41607029922059       -1.98192969135265        0.01253926978435
C            0.37782463730774       -1.12106914888812        0.01285468445679
C            0.87196673496900        0.17272749412389        0.00249608601147
C            0.04531230653718        1.31898515650529        0.02243538759490
O            0.41052814019543        2.49782189400926       -0.05690448492617
N           -1.35093668113057        1.03397559374851        0.14845248715970
C           -2.17317260810298        2.30322703774435        0.02047510062512
C           -1.87633715580335       -0.25426080875062        0.04926303824018
O           -3.06026453457468       -0.51634459023399        0.00209872229619
N           -0.96281257754080       -1.36253054971651        0.00967024250351
C           -1.41045461080827       -2.74814335197283       -0.01629356323047
H            3.63775361148000        1.28194077235033        0.98132956320602
H            3.94622261609774        1.04383443853933       -0.75491149430224
H            2.59481511169429        2.08196183791866       -0.21459519749444
H            3.57684131142493       -1.65704612054914        0.00249532747801
H           -2.02723221352263        3.45785167161412        0.58288396486332
H           -1.72274605909609        2.82483430543922       -0.79002839992964
H           -3.20281786688308        1.93389016613316       -0.11571234309588
H           -1.08885818687412       -3.27891931382424        0.88719793556055
H           -1.00365147608671       -3.27705055812813       -0.88643724491089
H           -2.49535067237232       -2.77469386873513       -0.06955032401167
H            1.39049394677065       -2.98845127658880        0.01814184051402
25
 energy: 29.704330856768 xtb: 6.6.1 (8d0f1dd)
C            3.16761339420107        1.18079006742549       -0.00170727134966
N            2.26129191255923        0.08051514572553       -0.02484587337625
C            2.58971438402417       -1.26202401021172        0.00620139585604
N            1.41549569924771       -1.98192276343147        0.01275723477667
C            0.37738215367568       -1.12064499817488        0.01308218311659
C            0.87173826970572        0.17338872749650        0.00214256845139
C            0.04588680672505        1.31872158011025        0.02044419938058
O            0.41057809387111        2.49791344910159       -0.06087479739897
N           -1.35053357066036        1.03436447805089        0.14661846661164
C           -2.17095764322937        2.30525385789404        0.01922411266138
C           -1.87706343836082       -0.25352936740271        0.04933101413348
O           -3.06123483130188       -0.51579227329030        0.00469662975004
N           -0.96348424294246       -1.36171674123364        0.00966936945856
C           -1.41043742784285       -2.74793247001104       -0.01666245307052
H            3.63715823440999        1.28310619202540        0.98170151303114
H            3.94637436421408        1.04401554337666       -0.75431404549031
H            2.59400306988767        2.08198620471591       -0.21522155814822
H            3.57655757777194       -1.65704084056633        0.00332436833021
H           -2.03072652738845        3.44342842058031        0.58781608536586
H           -1.72060232120508        2.82948958784056       -0.79019953412431
H           -3.19976206263581        1.93573040773466       -0.11482371078835
H           -1.08976795151779       -3.27902211044971        0.88716115273645
H           -1.00214410241326       -3.27689214297260       -0.88619095858651
H           -2.49522064517008       -2.77483511704450       -0.07145171068512
H            1.39035547231111       -2.98832222511696        0.01915551550539
25
 energy: 28.902966542601 xtb: 6.6.1 (8d0f1dd)
C            3.16774659581838        1.18143730162041       -0.00145399719107
N            2.26225652997358        0.08060543768721       -0.02513951894277
C            2.58974307520622       -1.26200619186371        0.00618520514419
N            1.41514175682475       -1.98212949796630        0.01350334679822
C            0.37738064911032       -1.12007636555122        0.01333000865181
C            0.87178833204354        0.17434039363473        0.00195665814914
C            0.04664894854430        1.31843166842981        0.01841562603269
O            0.41002099373567        2.49814132697883       -0.06553630235145
N           -1.34940794326970        1.03418411988743        0.14688873835334
C           -2.16947153169689        2.30534082810568        0.02017773366184
C           -1.87768034706327       -0.25241585210391        0.04952553127907
O           -3.06188154865176       -0.51552258054000        0.00754875169026
N           -0.96363595934008       -1.36116250927603        0.00913888228048
C           -1.41057637974526       -2.74769005915128       -0.01719086904302
H            3.63669553394462        1.28424435051498        0.98241933150479
H            3.94724290730844        1.04459241374153       -0.75328047654749
H            2.59341171067649        2.08188998013240       -0.21580242158366
H            3.57615735186112       -1.65835885819164        0.00396764393559
H           -2.03536130604740        3.43601483539951        0.59191341849078
H           -1.72024880369667        2.83207617192654       -0.79023010336510
H           -3.19562056677141        1.93546334736841       -0.11673829088967
H           -1.09138112199532       -3.27915962490889        0.88717999714105
H           -1.00119613860631       -3.27713051401647       -0.88588164589182
H           -2.49538445697046       -2.77377582201309       -0.07340227439318
H            1.38982638674343       -2.98830569767303        0.01953892323322
25
 energy: 28.568606886089 xtb: 6.6.1 (8d0f1dd)
C            3.16793882939556        1.18179679704049       -0.00122679749260
N            2.26315226845036        0.08046840152245       -0.02567750454821
C            2.58996407718961       -1.26214191196366        0.00600776101700
N            1.41506051013730       -1.98226816649324        0.01406018439775
C            0.37762405348363       -1.11975469685500        0.01352116049528
C            0.87201511854524        0.17483154639176        0.00210434143213
C            0.04723910769457        1.31842046740051        0.01786966907921
O            0.40957300865564        2.49839502915132       -0.06744136768854
N           -1.34855416362808        1.03408658283198        0.14829838722921
C           -2.16865425588638        2.30509494635524        0.02204261704877
C           -1.87789752662626       -0.25136155394643        0.05004318313011
O           -3.06189837506717       -0.51532687208729        0.00868974894930
N           -0.96343814903013       -1.36093843405296        0.00862060237562
C           -1.41065700484653       -2.74743344222278       -0.01757026779890
H            3.63649567531743        1.28477432700365        0.98290404931943
H            3.94796086200781        1.04529990323142       -0.75260337664399
H            2.59316711868341        2.08179028229770       -0.21591284739961
H            3.57590346319546       -1.65981296880831        0.00428388040004
H           -2.03659789482123        3.43319037709755        0.59217609476592
H           -1.72341759979024        2.83229239397502       -0.79067325769772
H           -3.19336467450093        1.93503155930911       -0.11875160720552
H           -1.09221807032377       -3.27903147465827        0.88710948012852
H           -1.00096641679060       -3.27720318300558       -0.88581142503284
H           -2.49556444746557       -2.77283479589260       -0.07420032871375
H            1.38934915395718       -2.98833651145014        0.01917151660065
25
 energy: 28.338878234330 xtb: 6.6.1 (8d0f1dd)
C            3.16816734694639        1.18178038946760       -0.00127986314046
N            2.26364365957007        0.08027236298538       -0.02635822378725
C            2.59011148503592       -1.26224061836426        0.00560896155042
N            1.41507469099346       -1.98218387928178        0.01438657313251
C            0.37785117902800       -1.11949452607816        0.01366405849251
C            0.87230356871649        0.17503277355313        0.00232772021042
C            0.04766014836272        1.31890149403187        0.01843572212799
O            0.40967803120046        2.49880998013451       -0.06681278094017
N           -1.34802020378456        1.03444861347313        0.14995009345248
C           -2.16875464005865        2.30482604755514        0.02381955082839
C           -1.87770272691748       -0.25026106350532        0.05009214475047
O           -3.06143192586553       -0.51473600454162        0.00811519839760
N           -0.96312193068001       -1.36071087030318        0.00834636028221
C           -1.41080456057967       -2.74693599016771       -0.01740191732996
H            3.63660893020099        1.28461961415227        0.98289191127072
H            3.94834388726218        1.04563548600656       -0.75260368861642
H            2.59337038485551        2.08170267077602       -0.21591032973360
H            3.57569395811055       -1.66082595684045        0.00428729759160
H           -2.03796101799030        3.43185471912619        0.59295134188097
H           -1.72534871855357        2.83062560167420       -0.79165475801925
H           -3.19231461934401        1.93350598951294       -0.12234112164341
H           -1.09237301347091       -3.27845882988228        0.88732393275907
H           -1.00153794600947       -3.27693695281090       -0.88561072995243
H           -2.49580624483601       -2.77193644420513       -0.07368326659532
H            1.38888494574377       -2.98826600429621        0.01848970917817
25
 energy: 28.147943687107 xtb: 6.6.1 (8d0f1dd)
C            3.16816554836490        1.18153280579265       -0.00145467017092
N            2.26335986105703        0.08025057595116       -0.02685267593361
C            2.59018987250025       -1.26226381790311        0.00503214330578
N            1.41516752017321       -1.98194599687695        0.01429657072817
C            0.37789374363599       -1.11954536692772        0.01390001038683
C            0.87237997013830        0.17475541735897        0.00266525402907
C            0.04770358258988        1.31929658265417        0.01998856179934
O            0.41020863061478        2.49896493353912       -0.06417330830073
N           -1.34821542286471        1.03484009153111        0.15120586151320
C           -2.16891652880175        2.30543763186729        0.02496744794045
C           -1.87737083765310       -0.24982052810425        0.05036295533576
O           -3.06097988820410       -0.51420100821016        0.00641958931502
N           -0.96298835983414       -1.36073797216634        0.00876651049714
C           -1.41080337629371       -2.74668369131045       -0.01700526064904
H            3.63679350968473        1.28399527059936        0.98256434604124
H            3.94810753216042        1.04566928249888       -0.75310054536476
H            2.59368589628845        2.08181934634111       -0.21559854710952
H            3.57576661558293       -1.66070012355924        0.00407659900279
H           -2.03688199806584        3.43040902990941        0.59179656043895
H           -1.72751554082189        2.82924091196114       -0.79266385090887
H           -3.19260216015148        1.93347540082035       -0.12504711973130
H           -1.09157991755777       -3.27814177046671        0.88736384153807
H           -1.00224660951900       -3.27649014526228       -0.88574092988889
H           -2.49585050278524       -2.77198679858916       -0.07246330393884
H            1.38874352769818       -2.98814145927642        0.01772785627190
