  25
        -42.16793892
 C          3.0984107082        1.2447057456       -0.1946963108
 N          2.2666793549        0.0756131429       -0.0892066022
 C          2.6745164132       -1.1919353528       -0.0778797305
 N          1.6070035210       -2.0171507876        0.0389530859
 C          0.4813054102       -1.2406572889        0.0987318324
 C          0.8974146939        0.0786788808        0.0290790335
 C         -0.0448563170        1.1806823661        0.0817515205
 O          0.2277086267        2.3550350943        0.0207159199
 N         -1.3577030891        0.6857222820        0.2361229464
 C         -2.4459304664        1.6947062679        0.2575683369
 C         -1.7498320123       -0.5895155939        0.2868533773
 O         -3.0972634253        1.7481497259       -0.9530206486
 N         -0.8301698344       -1.5691523072        0.2133134339
 C         -1.2534225112       -2.9533285984        0.2529549942
 H          3.6401291570        1.4111344426        0.7379950598
 H          3.8179159825        1.1217069749       -1.0031749451
 H          2.4647571579        2.1096209790       -0.3902108407
 H          3.6929396767       -1.5178360386       -0.1504398218
 H         -1.9759774382        2.6692680506        0.4215813550
 H         -3.6936804395        0.9943931080       -1.0590892982
 H         -3.1050605122        1.4348062932        1.0973960449
 H         -0.8649874825       -3.4507709849        1.1424928004
 H         -0.9144039620       -3.4796249915       -0.6395393265
 H         -2.3399927818       -2.9703805126        0.2849039944
 H          1.6489985750       -3.0259615625        0.0589519893
