25
 energy: -42.119010386802 gnorm: 0.008481354282 xtb: 6.6.1 (8d0f1dd)
C            3.03005524711907        0.75355727533728        0.17705445838399
N            2.43411888209812       -0.56854348357889       -0.01171001346860
C            3.32784345164841       -1.63945953031537       -0.12076248859863
N            3.08959297502353       -2.85852201227746       -0.21130926147975
C           -0.06634393413722       -0.20015002897854       -0.03290289401848
C            1.14129190030469       -0.75433867942511       -0.03438995833373
C           -0.41519741216861        1.28061170646523       -0.11036735752067
O            0.35041641562062        2.20453302688218       -0.16980912436339
N           -1.77197540728098        1.31086313096081       -0.05766923379935
C           -2.58743852515109        2.50258955434406       -0.06534104951415
C           -2.33183228883231        0.03540142751290        0.02143813105929
O           -3.49371092568107       -0.23627240068312        0.07058008986933
N           -1.26934863019962       -0.85814923951435        0.03583123826101
C           -1.45185554775411       -2.28010574210138        0.09462193269588
H            3.57639806837634        0.78374608197653        1.12039358906678
H            3.71792008976914        0.95004237934810       -0.64650393755242
H            2.26039255926716        1.52424988639486        0.17835649310545
H            4.36847711473208       -1.32393405902266       -0.10593697684732
H           -1.93801290837679        3.37544094775677       -0.08246367659363
H           -3.23522350081233        2.49826248766834       -0.94350450596385
H           -3.21491256075780        2.51608138035228        0.82744826581234
H           -1.00080526928742       -2.68991264044307        1.00018127841180
H           -1.00108527450751       -2.75628671319195       -0.77834771927482
H           -2.52371439586885       -2.47685592987253        0.10329569307553
H            2.16538139095649       -3.27461028399946       -0.22701135451249
