  25
        -42.10817121
 C          3.1524838094        1.0813222616       -0.0285970314
 N          2.2868676008        0.0753963307       -0.0163163578
 C          2.5494903394       -1.2521783815       -0.0153014497
 N          1.3836414275       -1.9552550458       -0.0104023735
 C          0.3526864190       -1.0675796676       -0.0041343274
 C          0.8988279523        0.2045237758       -0.0016791482
 C          0.0754432965        1.3923012736       -0.0040466877
 O          0.4744126804        2.5316258996       -0.0017927199
 N         -1.2824426106        1.0619411453       -0.0071152761
 C         -2.2385861447        2.1602020577       -0.0188530138
 C         -1.8519091897       -0.1977612512       -0.0140371935
 O         -3.0387344331       -0.3682890117       -0.0253505558
 N         -0.9696101458       -1.3016120629       -0.0068237739
 C         -1.5197653647       -2.6421769888       -0.0105404797
 H          4.7171182203        2.2631449731        2.3904584380
 H          4.2062514085        0.8725279258       -0.0594988490
 H          2.7683440891        2.0847383696       -0.0358519518
 H          3.5284616785       -1.6857897670       -0.0233690755
 H         -1.6835139599        3.0936697425        0.0342841897
 H         -2.8316044357        2.1253023364       -0.9331555187
 H         -2.9150305306        2.0698518551        0.8307044563
 H         -1.2276879682       -3.1788256066        0.8925683504
 H         -1.1891282540       -3.1874432751       -0.8953162079
 H         -2.6051083877       -2.5508549469       -0.0340100710
 H          1.3198784378       -2.9627997252       -0.0128447624
