  25
        -42.14386159
 C          3.2615425928        1.0628476774       -0.0108925300
 N          2.1652481529        0.1795150156       -0.0057681885
 C          3.4348757895       -0.4210217706        0.0076775678
 N          1.0848312114       -2.2687501550        0.0009529149
 C          0.2835928062       -1.2860724266        0.0038579941
 C          0.9004122801        0.0468864452       -0.0005058809
 C          0.0693033369        1.2952506320        0.0000863007
 O          0.5999677511        2.3797162224        0.0075341684
 N         -1.2715846726        1.0719710118       -0.0032965548
 C         -2.1671967503        2.2207856088        0.0045634560
 C         -1.9044572477       -0.1778663407       -0.0022711608
 O         -3.0990752160       -0.2561095650       -0.0055036667
 N         -1.0899389274       -1.3072159043        0.0032839620
 C         -1.7563090100       -2.6026943582        0.0007854646
 H          3.7316719213       -0.9246655742        0.9153613850
 H          3.4400351855        1.6178166452       -0.9263632341
 H          3.4107849118        1.6580533449        0.8834331303
 H          3.7293999782       -0.9402741757       -0.8971805843
 H         -1.5659874227        3.1242909349       -0.0524310734
 H         -2.8466353313        2.1600297769       -0.8445284437
 H         -2.7593750127        2.2189502719        0.9193659778
 H         -1.4780586028       -3.1713170765        0.8888168093
 H         -1.4916732110       -3.1608550036       -0.8982587718
 H         -2.8304332015       -2.4307517903        0.0095151904
 H          0.6986354196       -3.2040453656       -0.0022091268
