25
 energy: 54.630188396513 xtb: 6.6.1 (8d0f1dd)
C            5.44120791225632        0.16909116905164        0.01266853973823
N            1.87922778018177        0.49214648753559        0.14770954266296
C            2.37581863622531       -0.75376332639928        0.16320541631838
N            1.26713666723552       -1.56178159094691        0.08994891051830
C            0.11746240348488       -0.83016889428298        0.04622136955937
C            0.49844457661014        0.49338519365719        0.08397122428015
C           -0.44820571826182        1.56141095919119        0.03071457519996
O           -0.19796974720478        2.75094609116874        0.03009936017350
N           -1.75829055976519        1.07045449950646       -0.04780250414237
C           -2.82400630125769        2.05626099360278       -0.11363087995040
C           -2.17412754767421       -0.24699338956779       -0.08360695509470
O           -3.34448659670217       -0.54733930289578       -0.15815799574271
N           -1.18390293437195       -1.22559878990456       -0.03231326592476
C           -1.55948370786782       -2.62333678794083       -0.06769562288166
H            6.17096901447230        0.01159192972883        0.78003007182740
H            5.65566952036915        0.88537344639542       -0.75593132490128
H            2.46903312082820        1.31315419920852        0.21123662499592
H            4.49260546925956       -0.35234202132034        0.04610803612682
H           -2.36555675499612        3.04825666167723       -0.09804816495315
H           -3.39660120822633        1.91864410870213       -1.02897438507719
H           -3.49081275814763        1.93231805632378        0.73591905462079
H           -1.22610064331436       -3.13344263554947        0.83760118949691
H           -1.13500272286435       -3.11579114267414       -0.94444662287561
H           -2.64619051370454       -2.66331837797988       -0.12432776098414
H            1.34378030443499       -2.56670102644722        0.09571023456835
