25
 energy: 57.677426626800 xtb: 6.6.1 (8d0f1dd)
C            4.34586412352434        0.78020608519533        0.08059544946086
N            2.18587283121079        0.44382665278639        0.05816958271123
C            2.50623705097871       -0.82072776665492        0.07554691771734
N            1.38248597116254       -1.64032230966893        0.07631149372601
C            0.32165354730512       -0.78809194607631        0.03567994702073
C            0.79725779756199        0.52415148185680        0.01748924195399
C           -0.20377312562316        1.58965899400637        0.00879875456381
O           -0.00657899762895        2.77717179342398        0.04242677862092
N           -1.54233879278054        1.08954456754520       -0.04641287109930
C           -2.59957813808842        2.07632051466068       -0.11285617689397
C           -1.98810927869404       -0.20404418018241       -0.07311052287795
O           -3.15368865673079       -0.52550972853189       -0.14469367256263
N           -0.99587681045784       -1.16431061127865       -0.00050350400935
C           -1.43128356331915       -2.54550073296743       -0.03042992349828
H            4.84711469728515        0.18286703284047        0.75420119523513
H            4.81940725687792        0.94374474209338       -0.85367861224405
H            3.90202765575327        1.53346132867294        0.66437397909431
H            3.62791750559548       -0.88515265670934        0.03462639965074
H           -2.14812318738124        3.05476400083906       -0.10635402128623
H           -3.18818534411975        1.95402639221544       -1.02385316726355
H           -3.27509769384099        1.98478004365386        0.73738078772735
H           -1.13796841419481       -3.05811410938082        0.88674800881828
H           -1.03065479981548       -3.06342106109337       -0.90589403804499
H           -2.52557300883984       -2.55231252421774       -0.09003085052342
H            1.27505466135966       -2.65239679228057        0.11849785296547
