25
 energy: 62.732864913890 xtb: 6.6.1 (8d0f1dd)
C            5.16648559144360        0.28796583970292        0.05397202671731
N            1.96923962732058        0.46919770303362        0.14839821658280
C            2.36908428641366       -0.81766591542072        0.10863798078214
N            1.24590436690935       -1.59404410514173        0.09212394919276
C            0.14907067941028       -0.81336695653051        0.04988318466537
C            0.57360126304242        0.50806617300131        0.09467050565701
C           -0.39246631327864        1.57241200094926        0.03087662877535
O           -0.17871034127795        2.76561503409679        0.04504857371426
N           -1.71379816689680        1.08128842451581       -0.06378889870052
C           -2.83834355443511        2.01104763511870       -0.11647466819328
C           -2.12953889518718       -0.23517566307046       -0.08588799316068
O           -3.29972040853657       -0.53712559549284       -0.15178063221692
N           -1.14605080609370       -1.21233370182529       -0.03100782500782
C           -1.53798999969870       -2.60961654995493       -0.06537718564991
H            5.86553804242443       -0.01362891442725        0.75401224020649
H            5.48868866058191        0.87960190390396       -0.77056154074930
H            2.72908592528843        1.20343840668258        0.21664166293557
H            4.35127900841097       -0.39931043319974        0.00660976274522
H           -2.49469592086929        3.04529098645910       -0.10349216470341
H           -3.41311617773458        1.81046825883275       -1.01943493849583
H           -3.49112852724963        1.81399837041147        0.73208746533450
H           -1.21498030017745       -3.12072422166093        0.84325480369374
H           -1.11757601231446       -3.10997125227752       -0.94030489530510
H           -2.62854191996430       -2.64194931028309       -0.12322061218376
H            1.30948602447951       -2.59936231827804        0.09154116575551
