25
 energy: 0.960649337237 xtb: 6.6.1 (8d0f1dd)
C            3.49651201647530        1.09537213263325        0.08746893752075
N            2.34949227741876        0.20632755651956        0.05199153536899
C            2.60568112702801       -1.15918407603368        0.08039872277116
N            1.41106707390363       -1.85854289898809        0.03274738767214
C            0.40048666521187       -0.96900615870986        0.01519948153377
C            0.92072303397072        0.33074697520610        0.03523914456985
C            0.03291617550628        1.43889729706052        0.00876623004640
O            0.34745230800901        2.63006510903995        0.00575454629070
N           -1.34656911636236        1.04254462989043       -0.03546697401093
C           -2.33010496495166        2.10550984380444       -0.06961984899765
C           -1.86762285637463       -0.20645649598401       -0.05488399127228
O           -3.06085124682965       -0.42485499463396       -0.08869550783537
N           -0.94393619611321       -1.25659684394436       -0.02599799478604
C           -1.45962952951124       -2.60485722742103       -0.06002175791906
H            4.09576596637941        0.96891204535604        0.99274955595704
H            4.15784183194290        0.99570924276736       -0.80455404985517
H            3.09295077327611        2.09359442884434        0.18177978170699
H            3.63250012772642       -1.45473285490454        0.04744536064309
H           -1.78170999047779        3.03165242151079       -0.05703953066932
H           -2.93251134930418        2.04242805967201       -0.97643453520445
H           -2.99344949232100        2.03904560777689        0.79277678232606
H           -1.18099797483298       -3.15199006677342        0.84215425819616
H           -1.10869339532044       -3.13938994019021       -0.94568288466402
H           -2.54801232775103       -2.52295989548722       -0.10344709254380
H            1.30632832507329       -2.86505144246300        0.01308608293004
