25
 energy: 48.217408057226 xtb: 6.6.1 (8d0f1dd)
C            3.89406950737720        0.87873512890946        0.07496169599784
N            2.41513041195922        0.37506991697306       -0.02039388790308
C            2.57778006563941       -0.98885772373210        0.05760609217018
N            1.40695933797674       -1.70536743915410        0.07226869865757
C            0.38873466613906       -0.81751999494323        0.04145090745237
C            0.89358868920073        0.51199324360688        0.02573263878928
C           -0.09854574391975        1.54857737847745        0.00950541927715
O            0.09388206293060        2.75310893170771        0.02682851514788
N           -1.48653818933242        1.06247629410660       -0.04060951184780
C           -2.51771068632019        2.07663059550493       -0.10140978392277
C           -1.95004929702040       -0.20944577129844       -0.06624178982651
O           -3.12452268443698       -0.50666965364116       -0.12606903249211
N           -0.95313028548559       -1.17848167580228        0.00379443134142
C           -1.41459377607905       -2.55198498387817       -0.03726231880787
H            4.54762419179261        0.43833405131590        0.81439364783171
H            4.53308064340847        0.90405911433826       -0.84312340968545
H            3.76481894683059        1.82465551998553        0.53306884037660
H            3.64961179668797       -1.13437768052853        0.03766258947787
H           -2.04016838352299        3.04229246761246       -0.09248238176285
H           -3.11407264113925        1.97908335595344       -1.01176920018904
H           -3.19259518373561        1.99779500329055        0.75227281658533
H           -1.14960395338975       -3.08608094403873        0.87540014173814
H           -1.04254906392889       -3.08406697504705       -0.91739378885880
H           -2.50902569792779       -2.52862149115657       -0.09877755209834
H            1.26765760725864       -2.71511667268395        0.09394645309811
