25
 energy: 57.213933628778 xtb: 6.6.1 (8d0f1dd)
C            4.54417365884271        0.52421150540958        0.02157663274961
N            2.06944365323144        0.53221678032858        0.16642423250241
C            2.43513970703139       -0.71376166646978        0.18116715277692
N            1.35202981730403       -1.57806778505183        0.10136784826410
C            0.26158385841953       -0.76552474792418        0.01539339648998
C            0.69622037366150        0.55878037508415        0.01398510397513
C           -0.30262724056601        1.61223367516086       -0.03131813441338
O           -0.10318087192400        2.79895808174255        0.00133957662046
N           -1.62723829252116        1.10708645826814       -0.06926765257087
C           -2.71018775016997        2.05237857529166       -0.12565728999223
C           -2.04451174153888       -0.19811574079333       -0.09517040687232
O           -3.20816946324604       -0.53228801942992       -0.14753306218001
N           -1.04706988277460       -1.16130970587601       -0.04385790760859
C           -1.46088953489061       -2.55337928669266       -0.04702634481836
H            5.14288851619276       -0.01169072736404        0.67630907965803
H            5.08800226521949        0.92113061980572       -0.79911710872531
H            3.75554164461691        1.14762252777674        0.42276147085964
H            3.81454594589700       -0.50273159912880       -0.04306463534704
H           -2.31221928434499        3.05859866621403       -0.11729185657014
H           -3.28292331245650        1.87968647745512       -1.03508009506670
H           -3.37414889436441        1.91156388553712        0.72507036277128
H           -1.14230743516010       -3.04643127336726        0.87253770665311
H           -1.04202080897445       -3.06542880433497       -0.91074196482369
H           -2.55364695529314       -2.58721727620628       -0.10339788665364
H            1.28826379465412       -2.58767319675589        0.16376753962244
