25
 energy: 57.936199054261 xtb: 6.6.1 (8d0f1dd)
C            4.44167549990236        0.72877443359354        0.08031027898577
N            2.14419883298493        0.48415555137890        0.09849111233764
C            2.49019852159383       -0.77354107965289        0.10324338681417
N            1.37154042726865       -1.60923678486564        0.07825503570496
C            0.30183634285472       -0.76857971389356        0.03006268849097
C            0.76282026916213        0.54774647502855        0.01765986883300
C           -0.24131730746162        1.60899938695848        0.00550530520777
O           -0.04855191223569        2.79894259233458        0.04273869770338
N           -1.57393639840371        1.10025774857022       -0.05145136244913
C           -2.63972909047902        2.07386842447891       -0.11795261325485
C           -2.00773683597967       -0.19833421949304       -0.08098593882294
O           -3.17153848229939       -0.52320128817093       -0.15556756418817
N           -1.01353664536557       -1.15670433000654       -0.00944920496930
C           -1.43825770942661       -2.54332046184674       -0.03269606047361
H            4.92499232318634        0.08178826749079        0.71576502590020
H            4.91159109678789        0.95080967878468       -0.83981066958285
H            3.82340183973964        1.38531732548221        0.62899083213137
H            3.63623367728861       -0.78173520026199        0.03129864095992
H           -2.20383399068013        3.06069806138783       -0.11189358275501
H           -3.22481750128765        1.93483977714565       -1.02839999141000
H           -3.31462199450986        1.96987042927500        0.73136217420021
H           -1.13174670164931       -3.04338091007220        0.88821641820249
H           -1.02454171714020       -3.05584775566038       -0.90169537142217
H           -2.53196638167152       -2.56281173452923       -0.09523307117071
H            1.26768672169492       -2.62192511682107        0.12920829416171
