25
 energy: 56.230628974788 xtb: 6.6.1 (8d0f1dd)
C            4.25019706248972        0.84142924333729        0.07756771894226
N            2.21459040298688        0.40390601076441        0.03037042849145
C            2.51830131161501       -0.86543332319811        0.05837861619177
N            1.39058619653072       -1.67311136124399        0.07311423645960
C            0.33564624231656       -0.81183276218554        0.03944170702414
C            0.82148887387194        0.49574783900719        0.01923731548363
C           -0.17267377210939        1.56732012652584        0.00642886840785
O            0.03728727555391        2.75133460762036        0.03296817260321
N           -1.52202904486595        1.07839619195049       -0.04034452123957
C           -2.56383407692634        2.07952888498586       -0.10693745347382
C           -1.97466282724950       -0.21015017296877       -0.06732342428543
O           -3.14370485999622       -0.51673078942160       -0.13303953297162
N           -0.98379030896900       -1.17514553596762        0.00185183202467
C           -1.42645699031424       -2.55193390787326       -0.03073142784629
H            4.75042073380597        0.30360693184790        0.80370086545860
H            4.73236653645372        0.92609196887544       -0.86693341804660
H            3.87974170591499        1.68503313064132        0.59200951041701
H            3.62285733206112       -0.97838083362483        0.03470233394291
H           -2.09556775568923        3.05001098405301       -0.10076200391644
H           -3.15469407832378        1.96996609350167       -1.01795922441517
H           -3.23775703090551        1.99709925792675        0.74500558801211
H           -1.14265156810892       -3.07223728983983        0.88334423659998
H           -1.03636890892921       -3.07441562268889       -0.90922549132606
H           -2.52006799941681       -2.54587036251896       -0.09041235373114
H            1.27115658909087       -2.68503466555181        0.10501261029177
