25
 energy: 57.816361666320 xtb: 6.6.1 (8d0f1dd)
C            4.59964257318505        0.47964826195166        0.01449447642042
N            2.04223146222544        0.53495606304308        0.17873248207605
C            2.41422730977520       -0.70558369972979        0.19281066153806
N            1.35145905979932       -1.57487629972067        0.08142012553116
C            0.24736516651306       -0.77731104610297        0.00896723782023
C            0.67060144757798        0.54946099300730        0.02037035715722
C           -0.32131000463828        1.61921145921231       -0.03445668269688
O           -0.09562242444722        2.80704116698064        0.00646528897787
N           -1.64626637667458        1.11714709979204       -0.07736415556699
C           -2.74424938046123        2.04411123672137       -0.12801831038843
C           -2.05019480071866       -0.19836180977800       -0.09194909040756
O           -3.21683194371290       -0.52941399648090       -0.13106125260203
N           -1.05997444707046       -1.16866964242267       -0.05758771418168
C           -1.47344466944493       -2.56184194890709       -0.05361963750707
H            5.23036706311905       -0.06761063170164        0.63785587679348
H            5.16109823891952        0.92592708674458       -0.77658422456600
H            3.71480499897226        1.04296605393613        0.35885722378987
H            3.89498584180644       -0.47708448311723       -0.08550056118839
H           -2.36461788378876        3.05591575742985       -0.11856868655201
H           -3.31615309388705        1.86031445245907       -1.03610956950381
H           -3.40478990198590        1.88657883021081        0.72310238028245
H           -1.15402209372263       -3.05586695570805        0.86597215931496
H           -1.05366269872932       -3.07452718283173       -0.91807733941143
H           -2.56585307562224       -2.59635030498400       -0.10754701403944
H            1.31797469390642       -2.58605209829935        0.15320774377024
