25
 energy: 35.596374970997 xtb: 6.6.1 (8d0f1dd)
C            3.82197860900958        0.92114357223555        0.07365857565636
N            2.41521137830249        0.34278079057987       -0.04427511195805
C            2.58411676139010       -1.02306336280961        0.05414376989675
N            1.40945959690097       -1.73651498212555        0.06765568812487
C            0.39569341385338       -0.84469090355925        0.04083500015273
C            0.90917057572743        0.47947068497117        0.03555903764053
C           -0.06872995051006        1.52749576865614        0.01226226743956
O            0.14334367042608        2.73070791056549        0.02282485723709
N           -1.45643405903579        1.05299573354772       -0.03995471039668
C           -2.47869535463006        2.07746458408671       -0.09598342082558
C           -1.93189885681732       -0.21293917541260       -0.06392689927890
O           -3.11081472314040       -0.49302125818712       -0.11995405032214
N           -0.94637642786673       -1.19493775701622        0.00424978492584
C           -1.41955167170824       -2.56333538662461       -0.04206609830328
H            4.48194404763086        0.56410752365229        0.86241571280970
H            4.45906726620967        0.91698879570282       -0.84844913945649
H            3.64567209502257        1.90136920431171        0.44880326412602
H            3.64647265038580       -1.20090752615458        0.03374403775773
H           -1.98628160092962        3.03496598633423       -0.08582271460244
H           -3.07611352432186        1.99094427821095       -1.00634344364049
H           -3.15239431561752        2.00522182441843        0.75912891419458
H           -1.16091812182502       -3.10203437606054        0.86979406768102
H           -1.05438882136304       -3.09408879049122       -0.92481395578059
H           -2.51070804059583       -2.52347191328821       -0.10825959541719
H            1.26365146994323       -2.74521288828146        0.07471097441645
