25
 energy: 55.744802895344 xtb: 6.6.1 (8d0f1dd)
C            5.38340451183959        0.25425441386647        0.03578513850700
N            1.91152990293492        0.47626338044077        0.14203455431484
C            2.38123937491842       -0.77951757446674        0.14764090482629
N            1.26455738557400       -1.57101787722481        0.08933215748741
C            0.12596296224054       -0.82639043269664        0.05416995969381
C            0.52235080618653        0.49509025492257        0.07898900727398
C           -0.43385247740044        1.56828984706565        0.01459657059455
O           -0.20161333094391        2.76749913934973        0.03201270273156
N           -1.73928181411497        1.06340787649713       -0.05144037670969
C           -2.82179826996618        2.03600419398034       -0.11769468587581
C           -2.16310227902657       -0.25103341512820       -0.08333784684712
O           -3.33284829435423       -0.55137543065350       -0.15691059180813
N           -1.17432199727614       -1.22646372438865       -0.02924277181536
C           -1.56573333898082       -2.62361014049239       -0.06746766975652
H            6.07882637898084        0.06225026637799        0.79980833689232
H            5.66852481279503        0.86255859719928       -0.80077065733801
H            2.52412895270209        1.29007422939235        0.20532901461270
H            4.52782356526132       -0.40745358074179        0.01368963035401
H           -2.39563587051316        3.03654693325108       -0.10450330560317
H           -3.39547262582953        1.88162294480695       -1.03230567081514
H           -3.48766497543002        1.89319024163979        0.73226366595756
H           -1.23915190004350       -3.14276477714167        0.83579838429875
H           -1.14782242779218       -3.11925858281187       -0.94643273845886
H           -2.65486527724298       -2.65902703385586       -0.12441280353331
H            1.34058796920962       -2.57460807116831        0.09007446733221
