25
 energy: 14.936717940213 xtb: 6.6.1 (8d0f1dd)
C            3.66494703151055        1.01416536984195        0.07960520680575
N            2.39003449618434        0.27250499169606        0.02456466607950
C            2.58769494092253       -1.09355158621591        0.08312393550022
N            1.40183349654289       -1.79891469147385        0.05418534598167
C            0.39824892992901       -0.90387590847031        0.03110973894213
C            0.91876697726208        0.40737575920595        0.04158060476220
C           -0.01643848683112        1.48372526210047        0.01207624343735
O            0.24423710679384        2.68198999239927        0.01370676914406
N           -1.40083364857674        1.04377610207448       -0.03902917042810
C           -2.40394590549710        2.08744146244569       -0.08574803812413
C           -1.90026683636091       -0.21150544274216       -0.06025884223623
O           -3.08677730361027       -0.45965570794106       -0.10566377058082
N           -0.94530047611256       -1.22635704555961       -0.00955855071176
C           -1.44001574327798       -2.58457079093024       -0.05323371971874
H            4.31116872856520        0.78250519023552        0.93106725222775
H            4.30620406909963        0.96283866808910       -0.83978150918922
H            3.37956348412963        2.02294182619291        0.31708076277271
H            3.62395464167286       -1.32928940954566        0.04751413065110
H           -1.88042833936427        3.02532824321776       -0.07257543637515
H           -3.00319998417603        2.01775502162740       -0.99539370014636
H           -3.07322255737026        2.02446785441317        0.77275288369129
H           -1.18709416412307       -3.12660334724575        0.85885695219691
H           -1.07971410174749       -3.11703792682589       -0.93600123413254
H           -2.52888664691653       -2.51756701471732       -0.12255682537864
H            1.26954491253171       -2.80651191306602        0.04193985095578
