25
 energy: 57.825185845326 xtb: 6.6.1 (8d0f1dd)
C            4.51592374612868        0.65281368874772        0.04676965568206
N            2.10495814212668        0.52034421386789        0.13865446720776
C            2.47487364314957       -0.72968058627583        0.13760794030060
N            1.36464350905545       -1.58257682015200        0.08975326021050
C            0.28280775168129       -0.75652144477962        0.02214720001197
C            0.72946985644204        0.56280571023338        0.01478548516810
C           -0.27643430751194        1.61378611460835       -0.01036487645656
O           -0.08872681057561        2.80199527138004        0.02274361844501
N           -1.60329611954342        1.10481951812936       -0.05911857382154
C           -2.67681352962227        2.06600695312499       -0.12187829144342
C           -2.02719570854919       -0.19676086922110       -0.08791358703423
O           -3.19022842853278       -0.52543851366199       -0.15356498764241
N           -1.02881391140522       -1.15459662582783       -0.02692000089894
C           -1.44750397967057       -2.54500169641795       -0.03916152566145
H            5.02195491908736        0.01917032444179        0.68497036759219
H            5.01706246954053        0.94890442896899       -0.82974348282470
H            3.78655412257382        1.27238690313261        0.51111225082416
H            3.66505656023452       -0.66796713131113        0.02069487208938
H           -2.25923756053906        3.06316410691877       -0.11583896274268
H           -3.25603387924021        1.90913950138605       -1.03162061319439
H           -3.34792528299707        1.94617412224277        0.72760192123747
H           -1.13441764711782       -3.03714502769590        0.88290319615196
H           -1.02898900550364       -3.05580820838089       -0.90331521722167
H           -2.54089706408278       -2.57517663483705       -0.09995265907171
H            1.26981545867433       -2.59456895834041        0.15043479428966
