25
 energy: 7.242997099199 xtb: 6.6.1 (8d0f1dd)
C            3.58309758210328        1.05770300205060        0.08461625045677
N            2.37362069163653        0.23656338668595        0.05089443876615
C            2.59839655661098       -1.12845567534933        0.08767661675658
N            1.40548908141681       -1.82944653742085        0.04462806610353
C            0.39912678425038       -0.93665132993207        0.02417970401500
C            0.92054521471794        0.36835482267348        0.04068311532816
C            0.00831641373098        1.46032947281456        0.01096267500957
O            0.29556510404509        2.65533399450595        0.00971209848470
N           -1.37366069888506        1.04189303265852       -0.03762969873271
C           -2.36723654099501        2.09486107644523       -0.07836785481650
C           -1.88458012687937       -0.20971442783498       -0.05804220684898
O           -3.07475191351749       -0.44194317175252       -0.09717049404151
N           -0.94634708129410       -1.24159928251852       -0.01970707200260
C           -1.45212718780121       -2.59411700071502       -0.05783159266627
H            4.20729818409684        0.87859938445690        0.96314967403912
H            4.23060985159133        0.97559851763308       -0.82463933353077
H            3.23894632101789        2.06657055922774        0.24800689420526
H            3.63533155626855       -1.38312103675431        0.04735208336393
H           -1.82963009379109        3.02450475714548       -0.06514147949881
H           -2.96759491771720        2.03022637928191       -0.98722341229399
H           -3.03359355784135        2.03164136054556        0.78199560214101
H           -1.18790855026192       -3.13949483998366        0.85020599847503
H           -1.09493277844480       -3.12804034283147       -0.94133736469834
H           -2.54071541109059       -2.51812607186862       -0.11375717359589
H            1.28750735363498       -2.83654977931181        0.02689865126697
