25
 energy: 58.215596027592 xtb: 6.6.1 (8d0f1dd)
C            5.27881404871849        0.29534377081936        0.05939092836033
N            1.95000230082957        0.46718735419996        0.14985476028853
C            2.37842964469311       -0.80875834106408        0.13009532731892
N            1.25469811359888       -1.58941354231734        0.09044676618763
C            0.14074969394665       -0.81949826107108        0.05735111769631
C            0.55275476367002        0.49996394922928        0.08328985436884
C           -0.41107250891197        1.57573304078134        0.01848916869152
O           -0.19174611523175        2.77614429067499        0.04626128642685
N           -1.72823705899222        1.07550792616813       -0.06145439786313
C           -2.82603995436117        2.03219589181432       -0.11825770795295
C           -2.14498009070995       -0.24220751841015       -0.08591094085235
O           -3.31391836302860       -0.54607053413898       -0.15706960467292
N           -1.15848475149996       -1.21902619198804       -0.02928568584092
C           -1.55072674998947       -2.61655329291161       -0.06602882527459
H            5.97140225469515        0.04768701905052        0.79453568361987
H            5.58418898473318        0.86272342206976       -0.79121653221271
H            2.62293533240846        1.24108488097460        0.21215897985682
H            4.45636513261462       -0.38858390242125        0.02158718044570
H           -2.44120426873942        3.04908444745238       -0.10341125365751
H           -3.40022592559363        1.84957595661924       -1.02596420647834
H           -3.48382355004987        1.85739197209203        0.73380636455871
H           -1.22685996815852       -3.13216294633103        0.84004300485833
H           -1.13236853751603       -3.11555005815659       -0.94312215912328
H           -2.64026641241946       -2.65398414637003       -0.12207215275239
H            1.31232620774430       -2.59665008149586        0.08790907771030
