25
 energy: -5.839141526423 xtb: 6.6.1 (8d0f1dd)
C            3.33032257541553        1.14650535611247        0.09135075022015
N            2.32478634311584        0.12767615686641        0.03904600496050
C            2.61478243823422       -1.22650733656818        0.04306314718300
N            1.42095038709857       -1.91783411017970        0.00904010980788
C            0.40380334118638       -1.03322410163081       -0.00232322729799
C            0.92628258831056        0.25619949210066        0.02052819229647
C            0.09273869084407        1.40113722861845        0.00086346372080
O            0.45418461743483        2.58170291089903       -0.00171686705473
N           -1.28986707332845        1.04706392142394       -0.03173787840136
C           -2.25474245085434        2.13248908166569       -0.05496260655181
C           -1.83096674661597       -0.19878354843191       -0.04863817309270
O           -3.02893207290025       -0.39310687925904       -0.07363491589132
N           -0.93821526579566       -1.28617015444072       -0.03545053813125
C           -1.46938146055373       -2.62859094693776       -0.06048413644193
H            3.84966896837085        1.14695079562789        1.05349779238982
H            4.07239894722063        1.01708320604956       -0.70735167099548
H            2.82667082842387        2.09949953979122       -0.00683470544613
H            3.61179510564150       -1.60213930393193        0.04945483112389
H           -1.70077261794235        3.06424145256677       -0.03256861525014
H           -2.85983807410573        2.07573908228723       -0.96037556014346
H           -2.91538418081218        2.06174654239816        0.80939203911678
H           -1.16844304158080       -3.17785508414392        0.83391182735636
H           -1.13538377432726       -3.16166906195485       -0.95369025625409
H           -2.55602748293246       -2.54095960795953       -0.08084336008499
H            1.34859055449758       -2.92264638811613       -0.00863749148954
