  25
        -42.12064282
 C          2.9979972497       -0.6449103092       -1.1721358990
 N          2.3614586748       -0.1108757901        0.0228016254
 C          3.0539524074        0.4256275926        0.9398574235
 N          0.5945422163       -2.4846715041        0.0133641753
 C          0.1632013751       -1.2739322005       -0.0269803391
 C          0.9372219460       -0.0772093193        0.0376828214
 C          0.3259974363        1.2114926480        0.2122345559
 O          0.9630629553        2.2316105297        0.4181347123
 N         -1.0609434449        1.2286697885        0.1082195633
 C         -1.7498839740        2.4985072678        0.2041939869
 C         -1.8502844687        0.1091612069       -0.0861987926
 O         -3.0486085337        0.2026803188       -0.2016353345
 N         -1.2055349474       -1.1139023989       -0.1200772059
 C         -2.0156754476       -2.3072632561       -0.2154538164
 H          2.9117674713        0.0892273463       -1.9791854525
 H          4.0540699676       -0.8193924929       -0.9718103898
 H          2.5177561415       -1.5671574888       -1.4953410014
 H          2.7049257971        0.9164049795        1.8303230301
 H         -1.0099375169        3.2800215178        0.3751816641
 H         -2.3023439399        2.6950571626       -0.7179871864
 H         -2.4705741837        2.4715693518        1.0249720236
 H         -1.8449217786       -2.9404303185        0.6580871504
 H         -1.7368398994       -2.8781048343       -1.1034169698
 H         -3.0639863992       -2.0146944481       -0.2707955164
 H          1.5687705779       -2.7016653611        0.1482471654
