  25
        -42.10302565
 C          3.2192495114        1.1540308842        0.0206958254
 N          2.2778089470        0.0664952349       -0.0006404766
 C          2.5610103167       -1.2311062881       -0.0041914651
 N          1.4214622708       -1.9537459219       -0.0120710935
 C          0.3659609718       -1.0750727347       -0.0097818046
 C          0.9105343057        0.2037024443       -0.0031558501
 C          0.0896710940        1.3946874135       -0.0240700892
 O          0.4934001062        2.5347435032       -0.0567449518
 N         -1.2715352255        1.0684116670       -0.0072775001
 C         -2.2203640648        2.1786238699       -0.0025856039
 C         -1.8533658975       -0.1688938042        0.0071112028
 O         -3.0353933915       -0.3521696275        0.0325828861
 N         -0.9644550187       -1.3278293597       -0.0159107725
 C         -1.5304088043       -2.5435667322       -0.0456369759
 H          3.7084879234        1.2102226354        0.9946124374
 H          3.9794744305        1.0123551857       -0.7464017151
 H          2.6832432153        2.0860742505       -0.1571533036
 H          3.5478518685       -1.6522578982       -0.0028318013
 H         -1.6536454561        3.1057676920       -0.0332106081
 H         -2.8764067969        2.1074265935       -0.8689426669
 H         -2.8304053543        2.1381920367        0.8989027045
 H         -2.7617806218       -4.7983083000        1.6553576286
 H         -0.9320291355       -3.4299814328       -0.0599502971
 H         -2.6014963236       -2.5872867006       -0.0558199891
 H          1.3743327950       -2.9623230309       -0.0079438213
