  25
        -42.15274830
 C          2.9795874871        1.5533410355        0.1667884563
 N          2.3208146059        0.5018559855       -0.0673011095
 C          2.5648090157       -2.2574906292       -0.1618298512
 N          1.2684818422       -2.1401756773        0.0342082030
 C          0.4792918348       -1.0130895529        0.0117577847
 C          0.9882078687        0.2856476496       -0.0039154769
 C          0.0654563903        1.4352004310       -0.0145881426
 O          0.4571660569        2.5811130679       -0.0086765387
 N         -1.2758451437        1.1140699785       -0.0200010174
 C         -2.2479664974        2.1979604949       -0.0425156177
 C         -1.7978997347       -0.1580971240        0.0092269595
 O         -2.9803324654       -0.3668434450        0.0142511482
 N         -0.8739270242       -1.2175152654        0.0335927630
 C         -1.4464282748       -2.5535510885        0.0333953330
 H          3.1571462070       -1.3916148389       -0.3931325305
 H          4.0319391774        1.5458299427       -0.0794266016
 H          2.5585871845        2.4619618460        0.5997816555
 H          3.0050203593       -3.2355450196       -0.0966751171
 H         -1.7063610188        3.1409292638       -0.0481485969
 H         -2.8708898417        2.1146050224       -0.9330767716
 H         -2.8923620811        2.1360195828        0.8344130429
 H         -1.2364392325       -3.0772984416        0.9688323193
 H         -1.1053035289       -3.1298137203       -0.8279633979
 H         -2.5286161473       -2.4335019596       -0.0440963887
 H          0.7465311806       -2.9971251569        0.2220253593
