72
 energy: -99.588447818771 xtb: 6.6.1 (8d0f1dd)
N           -1.96301495845313        2.97665166007217        2.02188335002824
C           -1.66791458231226        2.70331325631707        0.81018639508749
C           -2.41697274069323        2.04836892940824       -0.20954438451745
C           -3.08577022910522        0.77845810468461        0.03397894658871
C           -4.10378456926500        0.34999066913208       -0.83647761531275
C           -4.82351694884784       -0.80188756495225       -0.64767201549703
O           -5.85481368543380       -1.23328262559294       -1.43867214710728
C           -6.27312970678871       -0.41593785192550       -2.47925240791327
C           -4.53128625775052       -1.63531091677374        0.45920051795473
O           -5.30086932330246       -2.77997074773485        0.58445554279131
C           -5.03856854459293       -3.64423516472409        1.66417374325585
C           -3.49790867018502       -1.26152386413046        1.30071117753582
C           -2.77572261696134       -0.08895800116071        1.09414640283781
C           -1.92261307820879        2.30038612989807       -1.61053869063263
C           -1.00004107711750        1.13331668193501       -2.12218648784945
C            0.29512871110109        1.06647304034366       -1.44640452110513
N            0.82388309950948       -0.05436612515479       -0.88626048285425
C            2.16133811527849       -0.05804867528934       -0.36895131597270
C            3.12674335999560       -0.70580982144734       -1.37828921702987
C            4.53988418885010       -0.56861269987989       -0.90130395675395
C            5.25846424799543        0.58644496048733       -1.14481878050866
C            6.55994675223902        0.72246484909763       -0.67786694103179
C            7.16055968118774       -0.28655164831018        0.05476122139748
O            8.42846680294841       -0.24994089686460        0.55166063326001
C            9.22039567118491        0.87932442566743        0.27917726410088
C            6.42996941118127       -1.46466855158938        0.32757446806984
O            7.09384482586249       -2.40833086643741        1.05442753588474
C            6.44018542965928       -3.61443299103627        1.35376989862790
C            5.13558393214760       -1.58368100873522       -0.15159287493427
C            0.06220525277026       -1.27297722709706       -0.71152699572563
C           -4.77529536291771        2.58757739445040        1.28216203814020
C           -4.46473473605151        1.90656766098743        2.51865317611601
C           -4.53721155022404        4.08404039776295        1.18368382505111
H           -4.36978716190412        1.01248220742166       -1.63306434245013
H           -6.60467393763163        0.55859999979046       -2.10428626539767
H           -7.10496363150368       -0.94420508205626       -2.94700446527347
H           -5.47423017830463       -0.25985983602639       -3.20493959829607
H           -5.19290058587187       -3.14092815493701        2.62016762411289
H           -5.75120760188949       -4.46692606460732        1.58572527513195
H           -4.01647100084776       -4.05084826508452        1.64425177002852
H           -3.25205345620055       -1.89003447051827        2.14911765443861
H           -1.99504370507296        0.17117743300245        1.79393814697394
H           -2.76651277567176        2.41975208188914       -2.29775888594253
H           -1.32103581621442        3.21086654011521       -1.67886196308667
H           -1.54526556347741        0.19929220967732       -2.04156546803921
H           -0.85075750106017        1.37937096591884       -3.17779619893792
H           -0.69517203624599        2.97240796353765        0.38316022007338
H            0.94295969703863        1.91131762850203       -1.53057836281383
H            2.25245186055305       -0.59345646087140        0.57982732071972
H            2.47275877815737        0.97037016099014       -0.18930192753377
H            2.99961335623843       -0.20287230398023       -2.33731007447971
H            2.86901346183013       -1.76155023307556       -1.50457749724702
H            4.81507325874337        1.38297737227757       -1.72177566859116
H            7.10668690005828        1.62491923808452       -0.90003821754154
H            8.78482162710165        1.78666234872428        0.70795974081950
H            9.36967173412982        1.02108752880462       -0.79728366789574
H           10.18330743750819        0.69681834494420        0.75039857140466
H            7.15641637377483       -4.21705908194933        1.91269401636497
H            5.55443084909954       -3.44831674341694        1.97651832932679
H            6.15497038347356       -4.14971240260591        0.44258021320879
H            4.57130904881618       -2.48063819603955        0.05464926917036
H           -0.08212727378250       -1.77802304922264       -1.67357973279902
H           -0.92444302570460       -1.08463539606192       -0.27009548744456
H            0.60374913731841       -1.94127383852997       -0.03888923611406
H           -5.37287715045553        2.10121762275663        0.54694355215050
H           -3.35880451379331        1.98165886726040        2.50040706378296
H           -4.87719178896359        0.91553610090362        2.55711166612302
H           -4.96645305059647        2.55547426506989        3.22817922673961
H           -3.89184334401994        4.45719830595872        1.98058991151755
H           -4.13700434185165        4.51561883297062        0.27763027967360
H           -5.48599634017101        4.58433744866172        1.23621519830160
H           -1.32308932441893        3.58495224559940        2.52862238652313
