72
 energy: 70.242699557579 xtb: 6.6.1 (8d0f1dd)
N           -1.49343398306620        3.27981731010174        2.17050020017175
C           -1.47179055208803        2.52209373783456        1.17037509253471
C           -2.63820507891959        2.29216884295185        0.25074725869436
C           -3.13855310501999        0.86376769564932        0.42360112475315
C           -4.11051482564918        0.33563514548290       -0.43798900019422
C           -4.56150501798629       -0.96525875982908       -0.32391414585346
O           -5.53182220922903       -1.50443295129715       -1.12665377603747
C           -6.18462512902299       -0.67977143517536       -2.05644375530636
C           -4.00798670475383       -1.88091491449734        0.68571307239128
O           -4.29023605273846       -3.08556367629534        0.80315302765469
C           -5.83274500804704       -6.28536278475333        1.46572175061948
C           -3.06799174590632       -1.26206198280000        1.56629445649279
C           -2.65514750346204        0.03799346589776        1.43828899082968
C           -2.08792064090908        2.50265276999276       -1.18726175289835
C           -1.24795065667627        1.34299362709897       -1.75165084630477
C            0.09101180592487        1.21625714473033       -1.14172598132188
N            0.61884990513649        0.08941238243053       -0.67498124708669
C            1.99102656081897        0.05425930557730       -0.23654991652059
C            2.93659669130786       -0.51600529130256       -1.31083558232587
C            4.36373126196810       -0.41917077390020       -0.84843823137727
C            5.09054101533589        0.73781796594249       -1.05093783708169
C            6.40197819976440        0.84278375825911       -0.60589970424254
C            7.00646937513686       -0.21240843672626        0.05291214350833
O            8.28060194862434       -0.22529998929797        0.52643853608813
C            9.08483316424619        0.91005289316123        0.32549234170832
C            6.27017845151506       -1.40179721146081        0.26747299785229
O            6.94426250634528       -2.38506183714148        0.91907543379718
C            6.30253037999552       -3.61304786698738        1.15088163873509
C            4.96442736829867       -1.48577730875152       -0.18065954318464
C           -0.09063160642120       -1.16560974954660       -0.72240124390414
C           -3.80550171518707        3.28914554456437        0.49763714442484
C           -4.46523028310909        3.04979607571711        1.85646841975474
C           -3.38184064938473        4.75319125939050        0.38923456535053
H           -4.51679420925686        0.98518303638056       -1.20578492968912
H           -6.66418859233679        0.17690546969172       -1.56876499823539
H           -6.95217074591212       -1.29105211414916       -2.53552784506808
H           -5.50099842310389       -0.31073436099339       -2.83205271401633
H           -6.15790754320707       -5.95501222446519        2.42360858549615
H           -6.53281076678186       -6.42028721480756        0.67662886938953
H           -4.82770002984499       -6.62182037252553        1.36559465287607
H           -2.67809851121174       -1.89316809318430        2.35867111454715
H           -1.94380329127293        0.42426320166203        2.15380053530011
H           -2.93604721423956        2.64438229849186       -1.85868078134385
H           -1.48991506036871        3.41876222741939       -1.20871453009493
H           -1.81451595116037        0.41432059193700       -1.68516856259545
H           -1.07628863574121        1.57551597317901       -2.80734415361304
H           -0.57967030513884        1.95443620062410        0.86220145556236
H            0.73136390472613        2.08322152033122       -1.12788969380404
H            2.05486245929254       -0.56307729226379        0.66215347781683
H            2.32345014639582        1.06409508875114        0.01938815189361
H            2.80698497888076        0.05765459060433       -2.23115248798480
H            2.67387610437568       -1.55500700247989       -1.51202901188581
H            4.64429629619630        1.57330407572492       -1.57073605452933
H            6.94091107634219        1.75856466099628       -0.78601756091192
H            8.67224669881591        1.79344819829969        0.82468579025279
H            9.22190873249415        1.12698921815067       -0.73929919234180
H           10.04826297023714        0.66321608460612        0.76929197145446
H            7.04063982002439       -4.23359689391011        1.65641461966851
H            5.42614455950009       -3.49767321422355        1.79738755083390
H            6.00473124042497       -4.09677672031238        0.21493914522267
H            4.39579081234304       -2.38948913072912       -0.02527133880965
H           -0.26802151282577       -1.47411385013925       -1.75509305424225
H           -1.04984840973036       -1.09390875292769       -0.20344380338148
H            0.50958444325389       -1.92551556847564       -0.23222236400121
H           -4.55428422820294        3.10141351853709       -0.28182346865181
H           -3.74415784505827        3.21757285584096        2.64986397294977
H           -4.84247266984766        2.03445697796005        1.93180359254933
H           -5.29718415474516        3.73928622894300        1.98837670385917
H           -2.64774416948553        4.98707530061919        1.15428462595858
H           -2.96945271596737        4.99068462777828       -0.58857457526287
H           -4.25171252754259        5.38775868354636        0.54538162132173
H           -0.63337452399689        3.37875545328608        2.70422555692491
