72
 energy: -1.101353668811 xtb: 6.6.1 (8d0f1dd)
N           -1.50385060459952        2.86088832513665        2.24079481387200
C           -1.54388084110004        2.20731439829116        1.17000526593834
C           -2.73316744316990        2.09227503668690        0.25178186485505
C           -3.29249731538066        0.67234130702368        0.35225807041915
C           -4.27537608346195        0.22872783729438       -0.53318656264890
C           -4.80502017763575       -1.05511356935576       -0.47100662760166
O           -5.77656486469393       -1.50596403936548       -1.32010057279833
C           -6.35873633195375       -0.62306557163155       -2.25263205063230
C           -4.35025329369179       -1.99015890106743        0.51501587317217
O           -4.92958875781960       -3.25611201360429        0.47793497563936
C           -4.80867869969113       -4.34524128589979        1.38709172826002
C           -3.37681190803569       -1.52542078490581        1.38633846807793
C           -2.86307477027700       -0.22822754091102        1.31086893854487
C           -2.18160897900699        2.33095247697049       -1.18285693166640
C           -1.25811442815638        1.20350487557790       -1.68333052704892
C            0.01716400541793        1.15377924410732       -0.92044369717571
N            0.63853284031248       -0.03548832397808       -0.56671484151957
C            2.00865495681247       -0.03065512407129       -0.17329966619485
C            2.94375111739304       -0.54134776491603       -1.28954779486473
C            4.36637608296121       -0.43458661946214       -0.84677404106485
C            5.08284406566000        0.73068227116977       -1.04600935835434
C            6.39243393493716        0.84255466971539       -0.60172672284569
C            7.00066467961987       -0.21044321367539        0.05731144395618
O            8.28041185874466       -0.21441455509349        0.52945261846436
C            9.07368564210153        0.92476047945116        0.32145698255094
C            6.27348329165932       -1.39986319283442        0.27859875932749
O            6.95502283882674       -2.38391603418594        0.93274134369794
C            6.31391033734623       -3.61286548015751        1.15327058622371
C            4.97003899340922       -1.49342032858903       -0.16889184016864
C           -0.05454412915670       -1.28762750134475       -0.64056438484245
C           -3.86529146872802        3.10865592943651        0.56817034718274
C           -4.49338772517618        2.81643682840872        1.92992377314549
C           -3.39577243042254        4.56282660270627        0.52385351123000
H           -4.62930672416727        0.91924459317703       -1.28472488842734
H           -6.81751600387066        0.24552103076486       -1.76688809659862
H           -7.13634444653169       -1.20033670482207       -2.75310992000377
H           -5.63746479146242       -0.27649800796073       -3.00170710909127
H           -5.06402104826062       -4.05511604956203        2.41412523440363
H           -5.50054498064147       -5.12701745990998        1.05749052351156
H           -3.78543982739707       -4.74144719628892        1.37721019977306
H           -3.00363749778048       -2.18571025836683        2.15234484539818
H           -2.11669377803587        0.07875541288196        2.02727810654139
H           -3.01855638857260        2.42754641063843       -1.87830759321242
H           -1.62500390534295        3.27102440360528       -1.19768872051710
H           -1.79394551676248        0.25763786982147       -1.63410369721309
H           -1.03337633397360        1.40041295677898       -2.74272083269955
H           -0.67742579250799        1.68764935839905        0.70386497112140
H            0.66729385129433        2.00736277341081       -0.98642692431564
H            2.13939681066160       -0.65427348751919        0.71882954193748
H            2.29827205289000        0.98911653983393        0.09020668734242
H            2.77262722528320        0.06529193308779       -2.18057171644085
H            2.68519283630789       -1.57560710067596       -1.51964138504384
H            4.62764410965661        1.56172577752664       -1.56381461932859
H            6.92907629053044        1.75950206307137       -0.78465010371591
H            8.65488776052062        1.80656618354214        0.81827246796400
H            9.20483363964072        1.13808296821652       -0.74502076804590
H           10.04165282189720        0.69066562079027        0.76219091655363
H            7.05065294783124       -4.23874628019312        1.65553462084254
H            5.43521283285401       -3.50482496620536        1.79823966172494
H            6.01715156786098       -4.09113120108253        0.21317285694473
H            4.40224191102045       -2.39713505519016       -0.00976031013507
H           -0.23178626620861       -1.60538267218293       -1.67533358294875
H           -1.01841534342011       -1.22129824132879       -0.12703191420996
H            0.54381353259815       -2.04843338620576       -0.14501976953447
H           -4.63935934960506        2.98047636675788       -0.19880175679563
H           -3.75025584399581        2.94660869865775        2.70992214616184
H           -4.86988583117319        1.79756594335412        1.97074896404180
H           -5.32067321036758        3.49995888263944        2.10977516741825
H           -2.60753640835330        4.72948850350890        1.25110608960896
H           -3.03040061075116        4.84191141914050       -0.46188221517490
H           -4.22957228020030        5.21658598742484        0.77111509555618
H           -0.60864999916107        2.86581571623146        2.72531672948973
