72
 energy: 69.103249317289 xtb: 6.6.1 (8d0f1dd)
N           -1.47376008472763        3.29272945366416        2.16037832555074
C           -1.46042019237551        2.54339913919522        1.15846414337288
C           -2.62574583584654        2.32864520242229        0.23673414174199
C           -3.13199947634093        0.90398279705899        0.40467617359535
C           -4.10557654938238        0.39609346943712       -0.46632195542362
C           -4.56123536828962       -0.89723159341698       -0.36222591376218
O           -5.52192791037470       -1.45090939336061       -1.15384000891851
C           -6.19630844965263       -0.65075580462306       -2.08298356769589
C           -4.02329028390613       -1.81969792985298        0.63549928358252
O           -4.36540211570180       -3.01379679622438        0.69683174280557
C           -5.87846632755542       -6.64778841429054        1.61966653274041
C           -3.07028612641747       -1.23269864092570        1.52618621208429
C           -2.65219177841302        0.06998954800796        1.41372915326635
C           -2.08172424590601        2.52579369446012       -1.20542950322755
C           -1.24183897861507        1.35476379864418       -1.74897690810409
C            0.08104720070722        1.22386536507106       -1.10126443756937
N            0.62377888790757        0.08358051994099       -0.67870109665253
C            1.99353709281409        0.05167255339764       -0.22973954059200
C            2.93648879933931       -0.51746253258779       -1.30736372625003
C            4.36409709777624       -0.41975910887897       -0.84786741667535
C            5.08828174156245        0.73908256953200       -1.05027771954795
C            6.39924710969215        0.84472307029842       -0.60585939037969
C            7.00385733026567       -0.21083836880959        0.05247677818775
O            8.27786440046241       -0.22323900785785        0.52368153899176
C            9.08389145022521        0.91113347613799        0.32517160626185
C            6.26859485873174       -1.40078818609946        0.27014016443630
O            6.94397991832941       -2.38364662137437        0.92019465260034
C            6.30322433044911       -3.61331010003483        1.15076348750723
C            4.96286280972188       -1.48545492508607       -0.17767357551955
C           -0.08894428479681       -1.17038300435521       -0.72344543134425
C           -3.79689616934871        3.32021550985852        0.49092558764877
C           -4.45296080228000        3.06945113557973        1.84733974000295
C           -3.38050259923273        4.78595786445769        0.38363902181110
H           -4.51109956428536        1.04481960888123       -1.22992553662972
H           -6.68941457566236        0.20302715288709       -1.60375165833798
H           -6.95144843413687       -1.29467579358544       -2.53267645517964
H           -5.52459871188729       -0.28372081040238       -2.86923154763964
H           -6.20062107731155       -6.26741145448221        2.56370160511352
H           -6.53170826641667       -6.60069500877723        0.77601305690595
H           -4.86839468882484       -6.96906008535544        1.49234459861583
H           -2.68699800974526       -1.86744680965757        2.31198229138971
H           -1.94308469412324        0.45779719727491        2.13371468699586
H           -2.92791416719000        2.66391858049535       -1.87863571180339
H           -1.48092147986784        3.43678017129781       -1.23644589564085
H           -1.81575633220320        0.43280097137949       -1.67631126404375
H           -1.06930136728382        1.56316064339574       -2.81403293521838
H           -0.56752569343776        1.97890283588910        0.82324315194459
H            0.72144737082252        2.09362519305674       -1.09102990510589
H            2.06102028356433       -0.56049965800518        0.67381853380321
H            2.31713265017407        1.06460793903762        0.02048490059162
H            2.80245565997819        0.05794663947881       -2.22562601953581
H            2.67407735213665       -1.55630185052611       -1.51049850682645
H            4.64070936594521        1.57328057657354       -1.57004799726080
H            6.94029798657478        1.75972910847024       -0.78627294143376
H            8.67202978018867        1.79372479138221        0.82584280388268
H            9.22205734303356        1.12815141218477       -0.73926084283206
H           10.04675746976182        0.66346281436319        0.76911874208745
H            7.04163960714100       -4.23418026517823        1.65552563151739
H            5.42671939955520       -3.49919029875570        1.79730582291193
H            6.00553240289752       -4.09664338700624        0.21434241669846
H            4.39442178757284       -2.38944520667779       -0.02223464250091
H           -0.27804187295082       -1.47936418848457       -1.75388701711681
H           -1.04444531233890       -1.09134833547248       -0.19763748828943
H            0.50697836683912       -1.93698714102499       -0.23549668621728
H           -4.54584162107448        3.12484351767271       -0.28543808737786
H           -3.73463336997678        3.23587688034031        2.64303924314995
H           -4.82378345154419        2.04995760363642        1.91568216919668
H           -5.28924166039805        3.75174131697690        1.98187559817646
H           -2.64857754035291        5.02358067619696        1.14920661787245
H           -2.96399418952138        5.01863798961586       -0.59343615622426
H           -4.25211528070611        5.41851678913720        0.53449347678218
H           -0.61319172091333        3.36005198132170        2.69810018117508
