72
 energy: 71.231836646507 xtb: 6.6.1 (8d0f1dd)
N           -1.50292502388867        3.22982944804483        2.16437810217848
C           -1.48187949233395        2.48136306874417        1.15930930810456
C           -2.64787532025158        2.26103864646637        0.25352076504313
C           -3.14847465348817        0.82776253142909        0.42926001401920
C           -4.12236525962254        0.29525951804452       -0.42567504443580
C           -4.58631683439769       -1.00604396236563       -0.30890985500350
O           -5.56083358319358       -1.52191627097022       -1.13277957780231
C           -6.19678726636334       -0.67911227168664       -2.07015144357887
C           -4.04223435880502       -1.94218777223558        0.69430236011323
O           -4.29914497378701       -3.16430563771255        0.78583409873193
C           -5.74851819555753       -6.06044160416698        1.42662132266636
C           -3.10362624352425       -1.30744116677065        1.57141173044109
C           -2.67428087906858       -0.00773533089931        1.44169248858691
C           -2.09339604877145        2.48170831739049       -1.18021151718004
C           -1.23979335075621        1.32831719114381       -1.74974382710026
C            0.10322169622090        1.19829699129540       -1.13311174729692
N            0.62922476565477        0.06851781325656       -0.67424003411115
C            1.99832692967801        0.04370995539479       -0.23413178627759
C            2.93924632959228       -0.51752566610302       -1.30856307369607
C            4.36590437187522       -0.42086685377893       -0.85118458497055
C            5.09249157978376        0.73587635858338       -1.05276950579241
C            6.40275960080861        0.84056425236004       -0.60541936122642
C            7.00808289472100       -0.21352640583053        0.05291250803159
O            8.28210754928983       -0.22432238024708        0.52831854904450
C            9.08587711171342        0.91094662803972        0.32711962959460
C            6.27124436379262       -1.40246204380989        0.26676408371258
O            6.94619218510240       -2.38629432491605        0.91988595059090
C            6.30195887195770       -3.61443044753105        1.14966549619856
C            4.96677845258980       -1.48601763459277       -0.18219379298124
C           -0.08734842585356       -1.18244733999926       -0.71521788835656
C           -3.81379024029764        3.26527144864273        0.50431448331831
C           -4.47160324141071        3.02207825296962        1.86367910910591
C           -3.38393800097354        4.72943462706965        0.40482930616004
H           -4.52142350766702        0.94891742430253       -1.19547118963054
H           -6.67722901016315        0.18295885713643       -1.59051627457401
H           -6.96717766287064       -1.27808487299560       -2.56052549905346
H           -5.49934382796094       -0.31455907130364       -2.83541554046381
H           -6.04360713196244       -5.72975528276503        2.40171642332563
H           -6.46205492986756       -6.22007907516685        0.63259201425438
H           -4.73132460151189       -6.39021682407367        1.35142400620688
H           -2.71139064284205       -1.93986762631428        2.35914928225834
H           -1.95734672450384        0.37430981785366        2.15572102989467
H           -2.94567851641066        2.62101100095937       -1.85245012498124
H           -1.50603914081860        3.40741407299960       -1.19143985687995
H           -1.80289052370525        0.39762243455992       -1.67911460535909
H           -1.09372109878316        1.55944089193910       -2.81277457374892
H           -0.59508564064132        1.90929508239695        0.84131333057451
H            0.75432061360865        2.06066260799981       -1.14272788902644
H            2.06741405084823       -0.57515765387850        0.66301264467867
H            2.32474384612724        1.05605426606617        0.02668249108903
H            2.80599827004285        0.05950308573799       -2.22590668720069
H            2.67664797788044       -1.55589148931870       -1.51629305507768
H            4.64777670617908        1.57242727201866       -1.57164598796139
H            6.94251314215032        1.75700453010110       -0.78278599939036
H            8.67315750881682        1.79297240341905        0.82759441050332
H            9.22256327075340        1.12675841094041       -0.73762790125094
H           10.04918521715079        0.66585757577908        0.77059759600123
H            7.03858609786539       -4.23674311969180        1.65514584127802
H            5.42541633288792       -3.49802439666792        1.79589260079254
H            6.00416243469121       -4.09697392493315        0.21298893812401
H            4.39854491507953       -2.39070482900931       -0.02770158904156
H           -0.26413465046834       -1.49165375304821       -1.74797544451266
H           -1.04726748819922       -1.10852160872755       -0.19762080510721
H            0.51042443736465       -1.94297935105735       -0.22308169499386
H           -4.56707874753313        3.08859145614877       -0.27384147551530
H           -3.74535861469849        3.18400095523767        2.65340169248504
H           -4.84837828571143        2.00643824298717        1.93597018282066
H           -5.30178642923026        3.71231922943516        2.00450719172618
H           -2.64331750356514        4.95628670551551        1.16563091174824
H           -2.97620698775299        4.97289550082441       -0.57352293720795
H           -4.24858293298510        5.36841608074660        0.57310537344652
H           -0.64897170193725        3.32144278149234        2.71100710880142
