72
 energy: 69.261929061032 xtb: 6.6.1 (8d0f1dd)
N           -1.47349035014850        3.28892783572455        2.16255932519287
C           -1.46224106713724        2.54278687142224        1.15833084134252
C           -2.62770786345627        2.32984915314641        0.23453171928000
C           -3.13001236481346        0.90558084768992        0.40405752742735
C           -4.10229902733651        0.38442838382813       -0.46032653058731
C           -4.55782052558977       -0.91006894555552       -0.35341525932623
O           -5.52084283218164       -1.46016445937037       -1.14989285303404
C           -6.19367086797594       -0.65644346759806       -2.07840914141897
C           -4.01390897808112       -1.81625449022250        0.65366487492440
O           -4.35112124811962       -3.01000139259721        0.74872421717051
C           -5.89731803939346       -6.61946486766160        1.57466318356747
C           -3.05721445763754       -1.21844601383878        1.53310336342210
C           -2.64268759398629        0.08365991238595        1.41813647093552
C           -2.08392045313325        2.52595694127617       -1.20740943883604
C           -1.24215711834883        1.35523045331799       -1.74943290779836
C            0.07787169818034        1.22565776242215       -1.09337668237317
N            0.62447924767833        0.08226030345944       -0.68087318091617
C            1.99387422333849        0.04932565246564       -0.22893435214496
C            2.93688165694776       -0.51808120890624       -1.30724804482310
C            4.36520969732428       -0.42040369850914       -0.84937278194524
C            5.08890603021394        0.73850706512662       -1.05184497744511
C            6.39966020908070        0.84441762766900       -0.60669014959295
C            7.00487228312177       -0.21062269871112        0.05211026226022
O            8.27950236482300       -0.22303218294844        0.52322585101238
C            9.08407420070852        0.91219745220854        0.32386114157779
C            6.26972081270092       -1.40020625417617        0.27042889956068
O            6.94507709567218       -2.38326904983852        0.92113207165942
C            6.30335062053752       -3.61248900510531        1.15167128062511
C            4.96420516413749       -1.48524073819753       -0.17789736712831
C           -0.08866385757441       -1.17240842996503       -0.72127231134894
C           -3.79923838375537        3.32040112912154        0.48934956250864
C           -4.45308912089426        3.06993584876340        1.84644690013950
C           -3.38154401891972        4.78571295095875        0.38149578072361
H           -4.50874190735110        1.03061422162439       -1.22522530267046
H           -6.68686880458276        0.19791211722971       -1.59988958818393
H           -6.95039872745075       -1.29670000377518       -2.53098845349210
H           -5.52321091129737       -0.28796620974083       -2.86545069403456
H           -6.21289550784230       -6.24713881855801        2.52373604294490
H           -6.58474159718184       -6.68087589295356        0.76327591502012
H           -4.89058468318722       -6.94533763475372        1.44629375145772
H           -2.67762964521516       -1.85507270494531        2.31858035733185
H           -1.93381600914075        0.47833068639323        2.13449971331317
H           -2.93142986252107        2.66066275861819       -1.87973270538678
H           -1.48299195461562        3.43577805341939       -1.24112429568949
H           -1.81450556243598        0.43230216682296       -1.67462832832368
H           -1.06894514467520        1.56010432968945       -2.81585722508103
H           -0.57005934043715        1.98108697120668        0.81311174551478
H            0.72426020828074        2.09219507189497       -1.09556077717250
H            2.06385945776446       -0.56330594625715        0.67483655317308
H            2.31557808148526        1.06251619642785        0.02152436709405
H            2.80085672164357        0.05774832033638       -2.22482685015575
H            2.67488229682898       -1.55718059036399       -1.51058917478660
H            4.64012410540228        1.57238105963757       -1.57122407514683
H            6.94032982681556        1.75955501905986       -0.78717556944102
H            8.67145942876948        1.79462089696914        0.82428571270596
H            9.22143573768228        1.12866063284815       -0.74073001100785
H           10.04741556986431        0.66601324090821        0.76749097894939
H            7.04110693593817       -4.23395121610637        1.65667321211386
H            5.42654536465601       -3.49818652314044        1.79779777052571
H            6.00547780708091       -4.09569165834538        0.21513238299184
H            4.39550562032093       -2.38875889236606       -0.02118351965370
H           -0.28012442583682       -1.48238918617221       -1.75103271483113
H           -1.04283959245094       -1.09339261618369       -0.19313290277202
H            0.50725449650166       -1.94026947703160       -0.23347187947655
H           -4.54973085406804        3.12548056058041       -0.28594125015786
H           -3.73413028966975        3.23728120622560        2.64132568317173
H           -4.82269639550408        2.05001465414080        1.91578224835072
H           -5.28986589050824        3.75108335966760        1.98167562005298
H           -2.64888764172529        5.02223029788449        1.14665333870566
H           -2.96498383951679        5.01770705281155       -0.59552143113628
H           -4.25245342878816        5.41905839960967        0.53338740823051
H           -0.61393116876483        3.35679778033455        2.70397234160002
