72
 energy: -3.850449978910 xtb: 6.6.1 (8d0f1dd)
N           -1.50040286421736        2.83010844320180        2.24076895452902
C           -1.54668467157166        2.18767621975269        1.16334991069556
C           -2.73800784334288        2.08166365522691        0.24947400252466
C           -3.30082033090072        0.66477919976305        0.34362745193967
C           -4.28502815579753        0.23542767366112       -0.54763533874774
C           -4.81917639686558       -1.04350786672759       -0.49112874524241
O           -5.79043919054409       -1.50019884027287       -1.33490909163743
C           -6.37107836363499       -0.61845574221361       -2.26667654160716
C           -4.36601975679892       -1.97407579447232        0.49023320754134
O           -4.95167716236636       -3.22486272485005        0.45236160024855
C           -4.75993271480965       -4.26310555109977        1.39372696265000
C           -3.39224633446298       -1.53140010264703        1.36937383276034
C           -2.87189449329411       -0.23876703576599        1.29937148210098
C           -2.18614981572632        2.32115667783015       -1.18358339616261
C           -1.26016627492608        1.19446596632085       -1.67718105436891
C            0.01212435497743        1.14464918067795       -0.91058569988894
N            0.63670736383958       -0.03961106746682       -0.56471684728878
C            2.00644841033465       -0.03230729573961       -0.16770134652117
C            2.94060672539902       -0.54127478791148       -1.28573302311812
C            4.36374133042556       -0.43408375706183       -0.84327315095872
C            5.08025162789254        0.73088137107964       -1.04437816467929
C            6.39028469014805        0.84254013423847       -0.60183472259768
C            6.99925415102226       -0.20982888483128        0.05762724134106
O            8.27861260842958       -0.21332920153954        0.52891613558676
C            9.07204234566883        0.92591696121115        0.32081138743667
C            6.27213822984167       -1.40001638880868        0.27934109321336
O            6.95420854866588       -2.38362042645976        0.93220351769601
C            6.31471636322716       -3.61345151585704        1.15325598302761
C            4.96830903410240       -1.49346557590376       -0.16669190980953
C           -0.05319991355208       -1.29334281169722       -0.63422670959022
C           -3.86721519400293        3.09845387466612        0.57311506581051
C           -4.49390272519411        2.80265769165229        1.93456647375270
C           -3.39551234811676        4.55180583359025        0.53204621005401
H           -4.63852139703855        0.92917386176394       -1.29521976374584
H           -6.82817613271281        0.24996318622680       -1.77949869106921
H           -7.14869084130398       -1.19571824668930       -2.76625084523119
H           -5.64791194638548       -0.27390137114873       -3.01459372941322
H           -5.00268175463242       -3.94244844504542        2.41379310781349
H           -5.43138912553196       -5.07690062654509        1.10940351430184
H           -3.72588335644208       -4.62710659291715        1.37130176735390
H           -3.02588121607514       -2.19724438843022        2.13417856017526
H           -2.12626618263153        0.06043400681867        2.01991176196698
H           -3.02092341501052        2.41322852177001       -1.88123876210791
H           -1.63330677221998        3.26301439227211       -1.19952801815557
H           -1.79779554682115        0.24877755958303       -1.63058388527713
H           -1.02409190076575        1.39200338198853       -2.73267867259543
H           -0.68052108437404        1.67553425403793        0.68217082897021
H            0.65926623605144        2.00149184477448       -0.97114542827035
H            2.13276162906783       -0.65918093563847        0.72220123730879
H            2.29906058979498        0.98653915539854        0.09742031711441
H            2.77031221978455        0.06597521579994       -2.17664313572335
H            2.68352547620452       -1.57566453542302       -1.51719740766871
H            4.62552130450937        1.56177199622964       -1.56305086441567
H            6.92733341236262        1.75898014273505       -0.78636585705682
H            8.65358317410762        1.80785915615993        0.81765026213363
H            9.20360091555585        1.13879344322254       -0.74564564882865
H           10.03949172117906        0.69083459454399        0.76190927850738
H            7.05245961290285       -4.23804191616292        1.65535383966276
H            5.43617780630992       -3.50582835292582        1.79863280172804
H            6.01834336313912       -4.09200670298589        0.21323498826983
H            4.40195742571048       -2.39831976891519       -0.00846333827273
H           -0.22854465082833       -1.61168009591079       -1.66865199259865
H           -1.01751470166596       -1.22800560559788       -0.12131760956922
H            0.54895369956136       -2.05047096042357       -0.13755795019525
H           -4.64207061385256        2.97268556435806       -0.19307716371554
H           -3.75214692673448        2.93140659856460        2.71615126352022
H           -4.87117268030524        1.78387273472376        1.97318592163644
H           -5.32100871701223        3.48575027019596        2.11556009362672
H           -2.60498223099732        4.71540454860171        1.25777595139798
H           -3.03390590893247        4.83384257466459       -0.45415218607684
H           -4.22786971913651        5.20550068619257        0.78362898465590
H           -0.60596985131175        2.83280470293980        2.72737490938690
