72
 energy: 69.102129998052 xtb: 6.6.1 (8d0f1dd)
N           -1.54880341302754        3.12637804504903        2.22170950282810
C           -1.53667549661334        2.39379676279057        1.20476231562854
C           -2.69249981303883        2.19122973417034        0.26032518161183
C           -3.20572630359799        0.74895581013886        0.42069980379121
C           -4.17331627243641        0.20930840163523       -0.42838024366243
C           -4.68194269065795       -1.08330772425728       -0.32178023888131
O           -5.64546191100756       -1.52637600981198       -1.20170557541094
C           -6.25414833778837       -0.65744205858505       -2.13718470581304
C           -4.19760615442089       -2.04436656779158        0.68337001534875
O           -4.48368429118011       -3.30495678732927        0.67561836739622
C           -5.38767129727836       -5.36209915086926        1.37586769279017
C           -3.22094919177863       -1.42471694625527        1.52539995833302
C           -2.75257979701891       -0.12072166796031        1.40732998694315
C           -2.14056833381985        2.42725773741537       -1.17828371962149
C           -1.25256917071947        1.28939814335312       -1.73552220337371
C            0.06888305115405        1.19787526943737       -1.07608835311894
N            0.62000207138781        0.04589881140098       -0.62608069138619
C            2.00622737829194        0.01503191791075       -0.21436047988798
C            2.94718394229665       -0.53039073124858       -1.31180176987326
C            4.37873220576861       -0.43264699492188       -0.86097750685959
C            5.10024111690516        0.72889516644138       -1.05549463782375
C            6.40763368433870        0.83928550879534       -0.60148652375665
C            7.01553747753340       -0.21591369298426        0.05738425185440
O            8.29323983963983       -0.22389964256511        0.53277585324208
C            9.08663975817073        0.91589725371007        0.32768865870385
C            6.28059900457954       -1.40684732621734        0.27258214437556
O            6.95154767614793       -2.39003309734397        0.93103564833549
C            6.30383895570701       -3.61778642222683        1.15125571897092
C            4.97728949229808       -1.49476508916601       -0.18376150618034
C           -0.07463856700793       -1.22033067676553       -0.69134317733285
C           -3.84378107863536        3.20516619008009        0.52832267279484
C           -4.48783729743082        2.94231270184714        1.88896820536626
C           -3.39409369354438        4.66577964687274        0.45234461611928
H           -4.55144712314617        0.86445388407719       -1.19934182434782
H           -6.72841536081724        0.20822037819022       -1.65759344339973
H           -7.02941589185408       -1.24455830180388       -2.63606823849578
H           -5.55140373354188       -0.29426656229672       -2.89846600525182
H           -5.66831824865019       -5.05842809632079        2.35542093284170
H           -6.12322703474650       -5.67475549964437        0.64858771527163
H           -4.38035047661620       -5.72339966491188        1.34185630510179
H           -2.81560150068425       -2.05302777070350        2.29598982018904
H           -2.01923887803123        0.24702244011140        2.11059376165573
H           -2.99212835257387        2.55391630498769       -1.85459164740477
H           -1.55539197112455        3.35280175845483       -1.18593786687856
H           -1.77282961175166        0.34077999556807       -1.66937335175766
H           -1.11577926181344        1.50136897717532       -2.80913537685466
H           -0.65123837695210        1.80900648600705        0.89903603199421
H            0.74283785972265        2.03863481423967       -1.11566493463263
H            2.10806248162336       -0.60443992363163        0.68065309087021
H            2.31608756292329        1.02795567587661        0.04410040436115
H            2.79271810475600        0.06224397354258       -2.21421724460435
H            2.68639663745609       -1.56605318758760       -1.52557056565811
H            4.64644907236843        1.56375919840090       -1.56962282695217
H            6.94252838138867        1.76005143126300       -0.77421924991857
H            8.66672402877611        1.79628310060732        0.82618785943140
H            9.21660994615607        1.13210606992122       -0.73832680455302
H           10.05385519746546        0.67977583088384        0.76826721489201
H            7.03646368076266       -4.24592444544993        1.65561846845264
H            5.42580197944569       -3.50106197426310        1.79439685744357
H            6.00664342036362       -4.09287352842117        0.21072504888700
H            4.40388563824076       -2.39449135363344       -0.02415356221900
H           -0.24994331284184       -1.53745948133442       -1.72316274678390
H           -1.03657855762487       -1.15817419142841       -0.17660484076838
H            0.51485121263881       -1.99156289632183       -0.20271062574467
H           -4.60404801427561        3.04966159463962       -0.24734975598447
H           -3.74530292947692        3.08867655301950        2.66524590215709
H           -4.86215483223557        1.92462291435530        1.94800679548693
H           -5.31412886458660        3.63141427963142        2.05096487987289
H           -2.63319081182870        4.86620078730308        1.19906155674971
H           -3.00000263766599        4.92171233535997       -0.52918188261999
H           -4.24352809495725        5.31477822927003        0.65455655852728
H           -0.64948298163821        3.14854340786841        2.69856716153459
