72
 energy: 60.363810642584 xtb: 6.6.1 (8d0f1dd)
N           -1.53512682593554        3.06686805279988        2.23109576565850
C           -1.52650607031084        2.35698302022995        1.19749438812638
C           -2.69916477978766        2.17086494944593        0.26232612247436
C           -3.22866917715035        0.72816367182149        0.40795681875823
C           -4.19712569144019        0.19418562142254       -0.44337772152803
C           -4.71273920891463       -1.10736185746833       -0.33962364582923
O           -5.67653754448233       -1.53091652680710       -1.22606779811428
C           -6.27503341827770       -0.65076707670938       -2.16157933289586
C           -4.25594079301077       -2.06433445355315        0.67544969829672
O           -4.58870106633740       -3.42402746489512        0.64409219845868
C           -5.21100983258019       -5.04030973422338        1.37844126283946
C           -3.27044508262337       -1.46428391115027        1.49513144917069
C           -2.78632192799487       -0.15218334441343        1.38573407002900
C           -2.15212910035429        2.40610073478388       -1.18112691794919
C           -1.25388310779338        1.27404964606247       -1.73113317830167
C            0.05313002410888        1.21553331059163       -1.03861559067081
N            0.62502724154462        0.03291121122390       -0.60973514719324
C            2.00582818704760        0.00740124858986       -0.20572044494025
C            2.95259177140589       -0.53305132100533       -1.30833504907347
C            4.38007894428852       -0.43502059966869       -0.86141052820688
C            5.09947767551100        0.72861322860298       -1.05387636178886
C            6.40733867786223        0.84048960203129       -0.60057633971657
C            7.01479111967255       -0.21551595574933        0.05832506370590
O            8.29349182416024       -0.22256547918869        0.53359223030950
C            9.08427281626083        0.91713265472446        0.32679534911915
C            6.28319021538102       -1.40640268424590        0.27419051494647
O            6.95594058364791       -2.39117402246811        0.93354507936531
C            6.30639907099380       -3.61678919813661        1.15182593103863
C            4.98048805925043       -1.49503546431476       -0.18366511804170
C           -0.06838158295895       -1.23191206377586       -0.68438773003107
C           -3.84778747644720        3.18206506259733        0.53809478241643
C           -4.48957309928757        2.91384462424758        1.89890180821454
C           -3.39476168913558        4.64157272432388        0.46786766583488
H           -4.56919652755730        0.85755755388274       -1.21380716639651
H           -6.74694016683649        0.21651043498568       -1.68264053039562
H           -7.05181362530568       -1.23484562096379       -2.66132969736934
H           -5.56962020278144       -0.29102087034997       -2.92153937808954
H           -5.51965512125704       -4.83892103798590        2.39013176341431
H           -5.96875512369214       -5.49585379020673        0.72661597883731
H           -4.23944570047586       -5.51877898413181        1.36754493631144
H           -2.85427924996102       -2.08657479013486        2.26735280541995
H           -2.04732712860877        0.20613158419212        2.08824625770583
H           -3.00152593115653        2.52756296807788       -1.86000739806529
H           -1.57103112951586        3.33426899190461       -1.19100170399423
H           -1.76950597464520        0.32152929233907       -1.66475070049374
H           -1.10060589166009        1.47389195503118       -2.80581243328391
H           -0.65617510670288        1.77968389757789        0.85720017505919
H            0.72675242817084        2.04848462564568       -1.09216781203800
H            2.12123002840517       -0.61548637974086        0.68739890509863
H            2.31218436975288        1.02048053155623        0.05379275641803
H            2.78901361429119        0.06267215130017       -2.20698727468023
H            2.68940601968360       -1.56828463757369       -1.52638805454072
H            4.64316572248362        1.56159330137232       -1.56846327465487
H            6.94049132659854        1.76160360747393       -0.77446106970771
H            8.66438551744933        1.79850392943896        0.82417395955160
H            9.21382154693460        1.13339711457165       -0.73963887793435
H           10.05326720327294        0.68437906174693        0.76646417167721
H            7.03880468037777       -4.24589553442963        1.65600886146359
H            5.42785458104344       -3.50108462280003        1.79507864548339
H            6.00850050635464       -4.09132831319829        0.21107363072876
H            4.40353255004534       -2.39251748681771       -0.02202995577263
H           -0.24799791675995       -1.55392754504531       -1.71728784175525
H           -1.03002908428241       -1.17216535482250       -0.16870265494230
H            0.51881717447497       -2.00569230841561       -0.19431840148232
H           -4.61169231935508        3.03284461276202       -0.23597883232959
H           -3.74527365595999        3.05608094174996        2.67452215284796
H           -4.86524611819500        1.89606455451245        1.95468872843719
H           -5.31573514746693        3.60194507850592        2.06572409018939
H           -2.62692121883782        4.83395137486788        1.20904410356520
H           -3.00684225607522        4.90164397135004       -0.51486838386983
H           -4.24044712090298        5.29224445388347        0.68050473982649
H           -0.62868222627394        3.08957655397073        2.68959386579520
