72
 energy: 66.535907741950 xtb: 6.6.1 (8d0f1dd)
N           -1.54564325183567        3.09449080375599        2.22845231010885
C           -1.53314827419905        2.37969441786905        1.19992172883350
C           -2.69797750011565        2.17924202907314        0.26019524895241
C           -3.21772751072975        0.73700616609749        0.41553685898855
C           -4.18545698572496        0.20001736614272       -0.43537544928597
C           -4.69903699724899       -1.09499229762176       -0.32930627514996
O           -5.66051762413316       -1.52787762871679       -1.21547099233064
C           -6.26437746463043       -0.65398736589717       -2.15021049264114
C           -4.22591417797276       -2.05873015393342        0.67888547542583
O           -4.52022823247720       -3.35088603909716        0.66178486847200
C           -5.30538588008061       -5.22100608431871        1.38703211658437
C           -3.24438413698046       -1.44476795427385        1.51115905509935
C           -2.76890329886028       -0.13731919267240        1.39778119215705
C           -2.14712230952432        2.41670741934741       -1.18009269220846
C           -1.25347048032157        1.28164790249235       -1.73346556294975
C            0.06226495713999        1.20495122308271       -1.06043735641741
N            0.62176043485415        0.04198501574146       -0.61964507371538
C            2.00709840421509        0.01162815426796       -0.20989677749860
C            2.94923773980222       -0.53160716260772       -1.30986706975609
C            4.37961902157213       -0.43369137753193       -0.85941009058917
C            5.09992047366675        0.72855644429980       -1.05422303860865
C            6.40774580032285        0.83977150145600       -0.60079115592579
C            7.01567560831296       -0.21584439765152        0.05837831689693
O            8.29365441179183       -0.22321080472318        0.53329876548548
C            9.08561276169202        0.91665505572100        0.32715180189457
C            6.28210751728216       -1.40703593114120        0.27395335381375
O            6.95366431229740       -2.39067738179943        0.93245429797038
C            6.30499674918491       -3.61746663713737        1.15163725293321
C            4.97900584354027       -1.49526060677725       -0.18325505423141
C           -0.07143482415786       -1.22522334533984       -0.68786669617043
C           -3.84609912685209        3.19271923673934        0.53290942930778
C           -4.48887381039437        2.92791868057799        1.89419523483860
C           -3.39413274633043        4.65262784517789        0.45964114468214
H           -4.56190309087837        0.85733178215243       -1.20657256022226
H           -6.73780746305426        0.21244643111185       -1.67091209218099
H           -7.04049615814228       -1.24013649477282       -2.64873553215266
H           -5.56133476026726       -0.29195815803032       -2.91180887076014
H           -5.59470370091815       -4.95535831875517        2.38344782255092
H           -6.05047395497596       -5.58150282553431        0.68323849234260
H           -4.30728201674128       -5.62841324683037        1.35890467432208
H           -2.83337989067745       -2.07153040861661        2.28175546007335
H           -2.03344113459595        0.22525257204376        2.10223073301066
H           -2.99747052774365        2.53970593408472       -1.85734537838882
H           -1.56510620323383        3.34444838100951       -1.18954853305314
H           -1.77092677912255        0.33103709750587       -1.66831827713873
H           -1.10743796283703        1.48834683772996       -2.80665729484033
H           -0.65537644830059        1.79621020026966        0.87958520801204
H            0.73389627562390        2.04429730475147       -1.10235835906530
H            2.11399400468573       -0.60990895508503        0.68373478791483
H            2.31640838518557        1.02399732214107        0.05047823030346
H            2.79098413866082        0.06251771467710       -2.21059213239950
H            2.68779617340965       -1.56704499490524       -1.52579642780681
H            4.64499032223542        1.56240046023276       -1.56902811280585
H            6.94127269102204        1.76117730490700       -0.77407551431225
H            8.66576245188403        1.79756226874885        0.82506958297596
H            9.21521738194224        1.13278193579368       -0.73908364460011
H           10.05370783478457        0.68214781829578        0.76719664158633
H            7.03748667287900       -4.24613256555808        1.65592605500783
H            5.42667130187391       -3.50113541917424        1.79470003558683
H            6.00760652133401       -4.09207349011306        0.21090877271491
H            4.40312857310361       -2.39321145540714       -0.02319987917563
H           -0.24829808862695       -1.54448207656625       -1.71981765851483
H           -1.03306668107429       -1.16466089706019       -0.17267488060682
H            0.51695926948298       -1.99765848763276       -0.19872379373708
H           -4.60838178961166        3.04038982628937       -0.24142318443816
H           -3.74557108480472        3.07224439765647        2.67026693803373
H           -4.86409862170249        1.91035009337636        1.95202386639170
H           -5.31487214414670        3.61677748092044        2.05875857985112
H           -2.62947653916561        4.84902105613553        1.20324369552656
H           -3.00313271317106        4.91031572379713       -0.52264331685508
H           -4.24131397784536        5.30285129238401        0.66719554191971
H           -0.63995792799278        3.12119045051487        2.69111928952814
