72
 energy: 70.023473266933 xtb: 6.6.1 (8d0f1dd)
N           -1.49239557694696        3.29980462119086        2.16307214848569
C           -1.46865255524742        2.53733450660646        1.16896291686000
C           -2.63240299002057        2.30585199424015        0.24673897838973
C           -3.13339216297280        0.87999205388359        0.41869331245099
C           -4.10389653866089        0.35352580535950       -0.44494155249527
C           -4.55161303565325       -0.94661219375880       -0.33221270235329
O           -5.52175197055462       -1.49066851049545       -1.13011197067268
C           -6.18449875323022       -0.67653151616865       -2.05825490660168
C           -4.00155979587154       -1.85445853399792        0.68297002261189
O           -4.29897835323920       -3.05251726747694        0.81545653234931
C           -5.89157676292119       -6.39762188319128        1.47122011992406
C           -3.05378954923892       -1.24195379747207        1.55892621782914
C           -2.64541139888580        0.05783854414918        1.43375005181924
C           -2.08316449157709        2.51158943303990       -1.19235049697856
C           -1.24355845054072        1.34819350807235       -1.75256404547555
C            0.08660378184546        1.21944814721796       -1.12549592024175
N            0.62113525524638        0.08843567898483       -0.67335614840957
C            1.99283145788592        0.05475988971502       -0.23281794359747
C            2.93649911672435       -0.51649444892708       -1.31115319796854
C            4.36455184193439       -0.41951121709265       -0.84891076645109
C            5.08982811730127        0.73866694295809       -1.05119164404367
C            6.40100145199467        0.84418804020343       -0.60643971089148
C            7.00481703385417       -0.21147686369764        0.05214882233112
O            8.27898480752046       -0.22431484452997        0.52484511778872
C            9.08351864863810        0.91089722146804        0.32408470501012
C            6.26959496803129       -1.40152472270111        0.26842301660607
O            6.94441393825428       -2.38421354285328        0.91892081065837
C            6.30327994371255       -3.61268660171830        1.15079354759209
C            4.96347686630340       -1.48589689192167       -0.17933878761939
C           -0.09040721301494       -1.16431968743414       -0.72611202446732
C           -3.80162900055457        3.30118312311969        0.49396916395212
C           -4.46260980524255        3.06284820858621        1.85217003690937
C           -3.38045230657157        4.76524928375547        0.38193218619642
H           -4.51388949776661        1.00106747351114       -1.21187563233552
H           -6.67075455748918        0.18047941171058       -1.57699234341922
H           -6.94706319810317       -1.29929734436833       -2.52632883437604
H           -5.50951020247706       -0.30633430062707       -2.84216962138139
H           -6.21685125641628       -6.06979906447046        2.42635381960373
H           -6.58949507423438       -6.50712822655372        0.67001237752949
H           -4.89136334813358       -6.73608003417869        1.37462671025927
H           -2.67302521170584       -1.87769453604441        2.34856068604452
H           -1.93635590110124        0.44659764800810        2.14994608782960
H           -2.92879175717991        2.65648537099559       -1.86283694720990
H           -1.48349107524952        3.42516669782399       -1.21841040697903
H           -1.81353791443780        0.42313821642971       -1.68606685993107
H           -1.07639090492689        1.57828254480431       -2.81404698250016
H           -0.57056430757676        1.97092257137628        0.86065814794404
H            0.72258938669740        2.09071475103902       -1.11790577700016
H            2.05868157650234       -0.55947081234535        0.66943510100716
H            2.32016854530882        1.06601148982679        0.01680522267690
H            2.80447889661632        0.05782731942384       -2.23035068613729
H            2.67237093595263       -1.55535480974050       -1.50980193995271
H            4.64221176274242        1.57311059135994       -1.57104118158834
H            6.94061059762073        1.75949736258598       -0.78756974877911
H            8.67115848435739        1.79364570074792        0.82426862889329
H            9.22088633910288        1.12783235304370       -0.74066971855461
H           10.04680556382910        0.66412873688341        0.76765730402492
H            7.04141246900715       -4.23348417769128        1.65602177277317
H            5.42680720593130       -3.49797816990533        1.79734619039100
H            6.00523509037473       -4.09648967149627        0.21479886891033
H            4.39466755115815       -2.38927426103607       -0.02307998811276
H           -0.27429670214634       -1.46920553076811       -1.75871995884365
H           -1.04837021494274       -1.08631332457033       -0.20433580166702
H            0.50605986033662       -1.93071278826694       -0.23761855801018
H           -4.54765221744823        3.10888691469541       -0.28623030852767
H           -3.74382510600520        3.23334050432997        2.64659893862169
H           -4.83841591173021        2.04730054317270        1.92906622195339
H           -5.29513806444617        3.75159984102053        1.98064930269569
H           -2.64984095589250        5.00274079317196        1.14887913009595
H           -2.96549442972446        5.00044976394614       -0.59527383941625
H           -4.25196797656901        5.39805796196333        0.53156025628069
H           -0.62203453789880        3.38891431135385        2.68457681473214
