25
 energy: -42.245261158038 gnorm: 0.001986650254 xtb: 6.6.1 (8d0f1dd)
C            3.21552147224571        1.13584048595472        0.01608230645558
N            2.26775050588320        0.05228497059225       -0.00073756136500
C            2.53918284662046       -1.23958881316412       -0.00733767197361
N            1.39116038183456       -1.95112607723214       -0.00602891492207
C            0.35053095209287       -1.06766579411780        0.00200664592756
C            0.90508249848628        0.20042894401941        0.00576497743997
C            0.07231354505867        1.39709500670477       -0.00692256726210
O            0.48453722538469        2.52990247654898       -0.02606865537041
N           -1.27632483685925        1.06567560885610        0.00136779165005
C           -2.23055361497345        2.17014666992948       -0.00406481337821
C           -1.85315314089332       -0.19278480511906        0.00784244471090
O           -3.03647534144520       -0.36457457555926        0.01444640276313
N           -0.96823781474311       -1.30038971328024        0.00459622788445
C           -1.51406855088460       -2.64424324119448        0.00088225743726
H            3.71370305631242        1.18540438378379        0.98509847110051
H            3.96721122505349        0.99360807489102       -0.75885114705211
H            2.68087475291798        2.07056812380262       -0.15224043460826
H            3.52226915158868       -1.66949989467012       -0.01377747382168
H           -1.66845247095727        3.10038458586530        0.03566943497524
H           -2.83442313476611        2.13710768382946       -0.91132789387105
H           -2.89358092831259        2.09148645217658        0.85681990060338
H           -1.19590420429794       -3.18781695867065        0.89083116185846
H           -1.20709097164649       -3.17850301165854       -0.89866014061107
H           -2.59976931213562       -2.55571498801507        0.00814380966697
H            1.32832822253319       -2.95978705267794       -0.01236294033944
