  25
        -42.14561253
 C          3.5569607527        0.9536753487        0.0343642605
 N          2.4832088444       -0.0006526051       -0.0077347602
 C          2.6090952167       -1.3369537840       -0.0080719786
 N          1.3770937320       -1.8923378241       -0.0108721979
 C          0.4278090047       -0.8866510136       -0.0119145837
 C          1.1328468056        0.3239199417       -0.0043206206
 C         -0.4527865235        2.0821472416       -0.0323431767
 O          0.8137827060        1.6113279721        0.0079666492
 N         -1.5214409071        1.2677119157        0.0177281595
 C         -2.9668900670        1.4433206751       -0.0404939755
 C         -1.7476046596       -0.0516547881        0.0853234324
 O         -3.1271589314        0.0231782915       -0.0046743257
 N         -0.9204387313       -1.1178748200       -0.0038463937
 C         -1.4716310292       -2.4574239308       -0.0137410483
 H          3.8698181982        1.1351550566        1.0653654697
 H          4.4050040781        0.5757926737       -0.5339635847
 H          3.2158134030        1.8927497242       -0.3973483384
 H          3.5324955094       -1.8737188412       -0.0149669766
 H         -0.5495171630        3.1474763830        0.0077524177
 H         -3.3317570038        1.8785671652       -0.9727325496
 H         -3.4004061304        1.9357037759        0.8325132266
 H         -1.1619765232       -3.0115637367        0.8741615553
 H         -1.1580603812       -2.9885006377       -0.9137695467
 H         -2.5559565680       -2.3728568061       -0.0159005129
 H          1.1823413544       -2.8790822745       -0.0225977516
