72
 energy: -99.290416535648 gnorm: 0.007956090664 xtb: 6.6.1 (8d0f1dd)
N           -1.96748186999018        3.06896991835147        2.01058348792547
C           -1.92423298484430        2.22042808175010        1.09562645706854
C           -3.00028107725019        2.03147551209091        0.05983434932265
C           -3.43559266369948        0.58982125085355        0.18862463663359
C           -4.55711142310133        0.05538470322765       -0.32492344542269
C           -4.98827428430357       -1.30780556147070       -0.20004761868738
O           -6.08397540671151       -1.77025022094286       -0.85458671102279
C           -6.78536362998067       -0.96264756167570       -1.76581188801080
C           -4.39440022775880       -2.28234617683125        0.58949958156448
O           -4.99674433336523       -3.50229561669860        0.57255300358216
C           -4.58190542509786       -4.47659694949125        1.49866328219996
C           -3.23881461742397       -2.10935164301784        1.37173164208150
C           -2.25179136556494       -2.20450783242571        2.06129630932314
C           -2.34621916138278        2.24587230366384       -1.33441327631239
C           -1.41617967926831        1.11236939776282       -1.79252246075256
C           -0.12984481509998        1.07529549859981       -1.06365760538077
N            0.51409761768435       -0.02820860857708       -0.69783354097917
C            1.87909484300586        0.04606341599064       -0.23297647960122
C            2.87766887349154       -0.26451379567913       -1.36513351275878
C            4.28624176846440       -0.08513515761897       -0.87409896149649
C            4.91337371438587        1.14623450063808       -0.96590608029683
C            6.20501716163243        1.32155500167002       -0.49399356693932
C            6.89406730148577        0.26655300142420        0.08626080688970
O            8.14808533462936        0.32094638886155        0.57315872648563
C            8.86680481906746        1.52960903706744        0.48405701182887
C            6.25588313415850       -0.99992956060829        0.19099915161686
O            6.99621834211800       -1.96964898257868        0.76568222429697
C            6.45964195044349       -3.26506621423633        0.88590049683478
C            4.96426158352187       -1.15106803457345       -0.28727772369430
C           -0.04589933545972       -1.34272204429781       -0.90148813339679
C           -4.19095851485809        3.01760839450176        0.21484011402193
C           -4.91982989020321        2.82118519968549        1.54258608846586
C           -3.77383050184386        4.48138434795359        0.07858834036394
H           -5.23305998208795        0.69683948982149       -0.87722454682940
H           -7.31476198481376       -0.14657161979140       -1.26279846707532
H           -7.51646287761917       -1.62571674648785       -2.22511548396121
H           -6.13131412239985       -0.55726743272904       -2.54446287087041
H           -4.66151242735245       -4.10844852674917        2.52499067798962
H           -5.25854568498768       -5.31786798261887        1.35352756811282
H           -3.55009066786299       -4.79441159043139        1.31603001418380
H           -2.76513070690675       -0.05389903291028        0.73896418914132
H           -1.42833000764736       -2.22408611495086        2.70503079846351
H           -3.14714011005612        2.33951377165763       -2.06857228142703
H           -1.78938442607018        3.18300444362095       -1.31968430487472
H           -1.94263976898685        0.16017900698586       -1.73496904562885
H           -1.18832313385861        1.30105855345725       -2.85118733073282
H           -1.08458695885311        1.51492078169424        0.94857788482445
H            0.39324483438101        2.00906188258532       -0.92202932539695
H            2.02131589989460       -0.66449814507883        0.58522093923742
H            2.07702867340568        1.05006785281596        0.14773870885781
H            2.68420024230209        0.41620013983282       -2.19603251796657
H            2.72786296433645       -1.28700076929632       -1.71401373695617
H            4.40209921354392        1.98070361025833       -1.42143948321632
H            6.67018127801598        2.28890886778133       -0.58837211750987
H            8.37789275265345        2.32927784378624        1.04885678637706
H            8.99595358223629        1.84268847349099       -0.55633433400402
H            9.84117591010939        1.32259518559422        0.92221498987715
H            7.23952478859225       -3.86203106722678        1.35453163821394
H            5.56823143977315       -3.27309644359785        1.52162304011098
H            6.21646174106083       -3.69167266748328       -0.09225780536684
H            4.47454765777180       -2.11014022451858       -0.22189363753229
H           -0.16728662542813       -1.56224067209761       -1.96432097622627
H           -1.02012937052522       -1.42648153625663       -0.41442559329061
H            0.61785781198671       -2.08615490891002       -0.46778481943705
H           -4.89232776163923        2.79810449416847       -0.59835037916371
H           -4.27642489926396        3.11715159485157        2.36480144926822
H           -5.21525081130907        1.78450201057802        1.68406181800988
H           -5.81315010550019        3.44065376671150        1.56341211403496
H           -3.02184907280457        4.72794684505239        0.82108451034341
H           -3.38960926808720        4.70621989198707       -0.91273423383804
H           -4.63980102826122        5.11564676505578        0.25004278964987
H           -1.18567662764385        3.10181773848331        2.65874351144690
