25
 energy: 41.467307561258 xtb: 6.6.1 (8d0f1dd)
C            3.20633645637346        2.81030104084699        0.35158315332663
N            2.35210610863550       -0.45007285410518       -0.15247248244489
C            2.49131106540568       -1.72313793584190        0.05976790182641
N            1.28659763220720       -2.40041398063056        0.12069527996489
C            0.34446258111727       -1.44092007293771       -0.10883168350673
C            1.01950358830367       -0.24820153730838       -0.29825326690130
C            0.32594724554269        0.97694901104107       -0.55548996762882
O            0.79919632850121        2.01250057438127       -0.95511988729973
N           -1.03156842640411        0.85433500245042       -0.18954161480433
C           -1.70417672553736        2.08894203944686        0.18002044812961
C           -1.72829397636269       -0.31242004192699       -0.03616866349170
O           -2.92578989334335       -0.33583183439546        0.15120990334583
N           -1.00263412813876       -1.50624011432524       -0.13093317477403
C           -1.79904773469073       -2.70085518142217       -0.24575496839870
H            4.00362602643581        2.87192259279166        1.06932167050132
H            3.25101001338857        2.86640493256533       -0.69860958545135
H            2.24577902995080        2.65129192606985        0.69635607777103
H            3.45518553029474       -2.14814267583769        0.24586064472716
H           -1.02551054248182        2.86835352998772       -0.15716095423831
H           -2.68292640620956        2.16901540504534       -0.28234971230623
H           -1.74648499043814        2.13306515288189        1.28128698243409
H           -1.87193440497527       -3.31651619158292        0.66080032964554
H           -1.54811630520924       -3.31652944126115       -1.10846541765761
H           -2.80799531894525       -2.33792135989286       -0.41447149678447
H            1.15319303265917       -3.37888650396006        0.28754782017556
