25
 energy: 43.668553017679 xtb: 6.6.1 (8d0f1dd)
C            2.95544153841812        2.16352901211417        0.39408009372139
N            2.35626810439683       -0.18786850048138       -0.21765751315453
C            2.57333231784867       -1.41992771379450        0.13766714740154
N            1.41228386308197       -2.16219337942774        0.23818308085176
C            0.40232775585150       -1.32039622870388       -0.10373092591614
C            1.01093971636438       -0.09516369864785       -0.36691919959268
C            0.24545736843655        1.06212022958617       -0.71345503978459
O            0.59329493853169        2.03503835348228       -1.33428277993009
N           -1.06021851365815        0.88296032654570       -0.18783410260706
C           -1.80188910485749        2.09767603714978        0.10595350331243
C           -1.71357178734893       -0.31755514365659       -0.05500557773304
O           -2.91097059365669       -0.36071747207044        0.13394294933430
N           -0.95758596630521       -1.50284651650662       -0.13678785760489
C           -1.79370366099576       -2.70239918975278       -0.17729107363270
H            3.84926359071073        2.04315664908391        0.96112476074655
H            2.92920744921185        2.25705007222589       -0.65313953202267
H            2.05061565128922        2.21793955147508        0.93889947658163
H            3.55427804697705       -1.79965859835637        0.36455617454540
H           -1.14907163053935        2.92537190965919       -0.09409285382304
H           -2.72518695243320        2.17601173068527       -0.40684957869010
H           -2.03692781897781        2.16412573452745        1.17340441119984
H           -1.70415833318481       -3.31383806307675        0.73500601304396
H           -1.61626095877980       -3.32772728421470       -1.04948411553979
H           -2.80509824604555       -2.28204271022368       -0.28811170364061
H            1.38797086544229       -3.14400379788883        0.43049398308570
