25
 energy: 36.578319887527 xtb: 6.6.1 (8d0f1dd)
C            3.42747521131660        3.32311126142528        0.30036621892353
N            2.34043223174447       -0.67807748640419       -0.07283683983998
C            2.41737125894873       -1.97192543713912        0.01021003719067
N            1.17839954704436       -2.58741655449653        0.01814708479800
C            0.27968947683263       -1.56179026959820       -0.09843517947659
C            1.01859831017476       -0.39572927074412       -0.16422659164533
C            0.39519419354793        0.89046676124691       -0.24939100164344
O            0.91847653005640        1.95954693656551       -0.45357177340483
N           -1.00037356549583        0.78900536567400       -0.05596557378069
C           -1.70934916679134        2.05612228923183        0.14554925491945
C           -1.76666921149036       -0.35380149366867       -0.03277371882864
O           -2.97641597104789       -0.33305182901265        0.03382066476415
N           -1.06983850954993       -1.55464060183998       -0.12827861356603
C           -1.83920298431846       -2.76101342219214       -0.23629615596006
H            4.07415137357255        3.55194640316590        1.13157616363728
H            3.64723132510412        3.53651766010748       -0.71522079747255
H            2.46987212477131        2.96909904707231        0.39528551601264
H            3.35397534097670       -2.47431594529425        0.12750439071021
H           -1.02092724141841        2.85795449902384       -0.13433962237658
H           -2.59238866648709        2.08678782200566       -0.52658953937137
H           -2.00209177201984        2.11228294364091        1.20125466250911
H           -1.77820040477385       -3.31486813135237        0.68547911192054
H           -1.51048809828613       -3.33488821346365       -1.10037558497739
H           -2.87656467991774       -2.46158624051995       -0.35029094256931
H            0.98825752284388       -3.56934038825180        0.12357812661018
