25
 energy: 39.840170001171 xtb: 6.6.1 (8d0f1dd)
C            3.28393123327420        2.98518395988322        0.33552364732438
N            2.35018747508999       -0.52898034790082       -0.12600123732687
C            2.46801179720913       -1.81094182850684        0.04246980244107
N            1.25094292039365       -2.46864531438473        0.08646818115477
C            0.32420150388951       -1.48230160401268       -0.10511986386922
C            1.02143683894128       -0.29911086251616       -0.25566617843334
C            0.35852316298821        0.95302311965708       -0.45116092571734
O            0.86565375993340        2.00286493648266       -0.76794919513453
N           -1.01681543289788        0.83799893015419       -0.14832902538609
C           -1.70083619225298        2.08552737403537        0.17301006339063
C           -1.74159446511133       -0.32211897697626       -0.03520948823255
O           -2.94588483761861       -0.33340774928504        0.10980157084739
N           -1.02323158371487       -1.51673812467162       -0.12698622510179
C           -1.80517066788696       -2.71414195098698       -0.24613946153039
H            4.03643863689150        3.11016124293493        1.09515932279724
H            3.38040542966522        3.10457116292190       -0.70793482850130
H            2.30934612827250        2.78790277946721        0.59721659706043
H            3.42406546137814       -2.25975131513356        0.20747448759598
H           -1.04661991905046        2.88431638010918       -0.17224995755433
H           -2.65688390187405        2.14035580524230       -0.36017839921815
H           -1.79868957671962        2.13559937553544        1.26688069693088
H           -1.85090797836166       -3.30902171728661        0.66539936032157
H           -1.50354276359655       -3.31345549522839       -1.10339717319898
H           -2.82478175017113       -2.37933892101199       -0.40559464887625
H            1.09604856508523       -3.44830521486754        0.23553054720692
