25
 energy: -4.571456599652 xtb: 6.6.1 (8d0f1dd)
C            3.20473438905897        1.26249472350703        0.09035037966198
N            2.34519942532456        0.09780018790015        0.03475000462082
C            2.62196950908210       -1.27059559781932        0.03769051467964
N            1.42037892546276       -1.96560526026114        0.01126645185507
C            0.40778428663120       -1.08598965952745       -0.00987388303579
C            0.95043031165401        0.18786146025963        0.00611811720748
C            0.14077025061509        1.33128858122313       -0.02417532580930
O            0.53430423020488        2.49777047436669       -0.06460255348818
N           -1.25426030112255        1.02038730624810       -0.03122268360028
C           -2.17783381554356        2.13806970686846       -0.04095497807380
C           -1.82087468712727       -0.21485994202323       -0.04932625054652
O           -3.02234890125446       -0.39676141494824       -0.07112533345106
N           -0.94004787056058       -1.31459601378423       -0.04163627359427
C           -1.50459073762085       -2.64193738902644       -0.06544507781305
H            3.72089109059376        1.37731373692425        1.05419793176711
H            3.98178341883911        1.22463826542205       -0.68485833190733
H            2.56705106990318        2.13836321675211       -0.05282785668286
H            3.58269974137598       -1.72580838469850        0.04984948309541
H           -1.60874419073482        3.06172476944882       -0.02512890969615
H           -2.77295226916905        2.11395833064233       -0.94477744896999
H           -2.80861445266861        2.10106540308804        0.84133312377124
H           -1.22277811619337       -3.20357082764379        0.82769786690339
H           -1.19448054172763       -3.18473556837496       -0.96097772731501
H           -2.58703627712243       -2.51610339301835       -0.08209772638349
H            1.31226709970964       -2.96474060177582       -0.00323579264756
