25
 energy: 22.864560409559 xtb: 6.6.1 (8d0f1dd)
C            3.02601885320761        1.50513946232309        0.10519637131529
N            2.43132590545342        0.06945069249509        0.06792039967893
C            2.71202349294508       -1.33896522763277        0.14183861365998
N            1.50811008817091       -2.06300424675550        0.09015992544612
C            0.46435226834302       -1.20529007319610        0.00094486775983
C            1.02903317533671        0.06435387186815       -0.02390351211132
C            0.21112038315024        1.18324694024454       -0.18409618075308
O            0.56203149690055        2.33525164812869       -0.47498584359744
N           -1.18026649926464        0.93872266026836       -0.04670371926078
C           -2.02879601653430        2.11783540464688       -0.00449059077936
C           -1.76820499771251       -0.27399255806922       -0.05976489736248
O           -2.96937870953106       -0.42359367434700       -0.07428483636249
N           -0.90505895337801       -1.39836977484421       -0.05586811896034
C           -1.59507207125857       -2.67265638899853       -0.08819692528064
H            3.56127497981757        1.83249977160188        0.99510952164908
H            3.71503790356303        1.71914574303518       -0.73550241460106
H            2.15487955749780        2.16823442460215        0.06012663260966
H            3.61075079373656       -1.92239723339439        0.15019606090126
H           -1.42224057658099        3.00442095171257       -0.03346693141841
H           -2.64313920204420        2.17732321140557       -0.86627491667733
H           -2.57267021075052        2.16885246500867        0.92443302923396
H           -1.38174037707445       -3.25814390252006        0.80883383515688
H           -1.33929775608792       -3.24507579491219       -0.98052570531778
H           -2.66319149369663       -2.42268512479672       -0.11972743351671
H            1.41710979648967       -3.07419684823775        0.12109845575739
