25
 energy: 41.463534817517 xtb: 6.6.1 (8d0f1dd)
C            2.93458916560047        1.61424202769699        0.22601825184996
N            2.42974369041957        0.07292902139967       -0.01310809096253
C            2.70373872154166       -1.30876262592948        0.27797511200154
N            1.52691217267594       -2.07733776345548        0.21004744483352
C            0.47811662971361       -1.25556945241602       -0.00790961236826
C            1.03576201207909        0.01968236297543       -0.12035255514991
C            0.24000317214305        1.13745642540369       -0.35542734898851
O            0.60319318056540        2.24700282915438       -0.76601096902434
N           -1.12893428466688        0.91711690366092       -0.07291090933198
C           -1.94858466011270        2.10883589917474        0.02957107849730
C           -1.73372153362128       -0.29285397963899       -0.06034816568766
O           -2.94128457708585       -0.39280528394655       -0.02116599027894
N           -0.89974173698846       -1.44033434693225       -0.07083296555323
C           -1.65622622812229       -2.68617877663765       -0.11272511890512
H            3.69513176869526        1.99637215071724        0.91566070108790
H            3.42585475854546        1.96839906025315       -0.73766734909234
H            2.04189901053766        2.20312897775908        0.36154870513633
H            3.60070532941276       -1.90729000028473        0.31763124213395
H           -1.32694594873742        2.97674873891843       -0.05837250683258
H           -2.68235719022905        2.16430933210277       -0.72752569362620
H           -2.39600921623394        2.19204230473108        1.00756555961538
H           -1.48665789572858       -3.28652816494904        0.78644574511966
H           -1.42765309027521       -3.27539390374194       -1.00102021490527
H           -2.71088244142212       -2.36555673233803       -0.16494428142313
H            1.52447001442176       -3.09380274703356        0.24663638182913
