25
 energy: 30.647699938060 xtb: 6.6.1 (8d0f1dd)
C            3.57798347772005        3.66375206590846        0.21839364785334
N            2.31646345430052       -0.85316202799748       -0.02431346045412
C            2.33404189427746       -2.14773496456519       -0.05866833887196
N            1.07253562192990       -2.69698650560436       -0.08288849172761
C            0.21333397754560       -1.64823006922916       -0.06657987337981
C            0.99679892159940       -0.50636872564075       -0.02146406344603
C            0.40360695451039        0.80237042361750        0.02293337550076
O            0.96962376075738        1.87117017988349        0.03908222292408
N           -1.00244131525425        0.72931736295101        0.02090024144520
C           -1.73006141147633        1.98805647249451        0.08906585913251
C           -1.79261001617585       -0.39595057258377       -0.04672370330576
O           -3.00201602728626       -0.33698646952016       -0.06056449216955
N           -1.13896741502378       -1.62470988064225       -0.11105098618971
C           -1.92189976997177       -2.83507077688929       -0.20037854772681
H            3.94577239346292        4.08384300105581        1.13678053355053
H            4.11385583372245        3.84995577109044       -0.68562547353191
H            2.67464395746148        3.11411045894844        0.17057676892417
H            3.23870990789523       -2.71542425204747       -0.01379108945091
H           -1.00929951041854        2.80078349350483        0.00473306289083
H           -2.45311138424706        2.04080078909408       -0.72956311244833
H           -2.24101015908156        2.04777914662728        1.05158460865523
H           -1.75289200541341       -3.45383994658706        0.68031213085471
H           -1.67656950079169       -3.38901381051371       -1.10778426973929
H           -2.96615665412660       -2.53405907673231       -0.23789203978811
H            0.85209597768940       -3.67347367128282       -0.06474211424974
