25
 energy: 47.201035033396 xtb: 6.6.1 (8d0f1dd)
C            2.97486382980746        1.84815923920296        0.27335753295849
N            2.39143634122499       -0.07681171189445       -0.11925627978179
C            2.64599031022908       -1.34242125949084        0.20924617210678
N            1.49119605403803       -2.11347610489681        0.26151201255186
C            0.44882650522669       -1.29443658348766       -0.01907939128986
C            1.02976533534683       -0.03992886485285       -0.19875940732208
C            0.25062092675930        1.11173322246529       -0.46007564827855
O            0.61891780662823        2.17620975749690       -0.91898184558241
N           -1.09885256820537        0.90144614071967       -0.09574631338247
C           -1.90562478105139        2.10708800434084        0.04560365560308
C           -1.72671909198987       -0.30555716089534       -0.05770493772115
O           -2.93319532770254       -0.38311983402475        0.01845951830473
N           -0.91728294541737       -1.46738083008678       -0.07806319782328
C           -1.69905652540566       -2.69546659444156       -0.12126489196762
H            3.81358386345983        1.95374177508270        0.92947270421705
H            3.31783040409579        2.16042034923954       -0.73776400945232
H            2.04075905341257        2.25559932803275        0.55398849598606
H            3.58774075160326       -1.85027205288479        0.36034486258911
H           -1.27477448039281        2.96272928857103       -0.07135500198636
H           -2.69553839013659        2.16132764486354       -0.65027504388418
H           -2.30037218679218        2.19235319339259        1.04908325293542
H           -1.54518070430786       -3.29969905612163        0.77902107738091
H           -1.48182615606839       -3.29238279660396       -1.00736911426414
H           -2.74261736670054       -2.34142012259303       -0.18175479799653
H            1.52379305365375       -3.11901780136230        0.32568694916610
