25
 energy: 10.919541780502 xtb: 6.6.1 (8d0f1dd)
C            3.07444806663132        1.41632250064425        0.09078965660514
N            2.41914510604416        0.06763768719388        0.07146976630049
C            2.68678566877321       -1.33423908159849        0.08535139865494
N            1.47739491851421       -2.04026758095125        0.05210607752550
C            0.44771496446897       -1.16989933641931        0.00014664710263
C            1.00933618221948        0.09731004865248       -0.00088136330785
C            0.19105983291684        1.22352639676815       -0.11457053185311
O            0.56098234148682        2.38192251823524       -0.32160968599617
N           -1.20794905458171        0.96064232777730       -0.04022451546253
C           -2.07792620423685        2.12283226016140       -0.02254258271944
C           -1.78904890545119       -0.25898559477173       -0.05719963015993
O           -2.98978059701043       -0.42752766425959       -0.07812556155828
N           -0.91586206173032       -1.37164723539629       -0.04952551110998
C           -1.56567683953243       -2.66311945358216       -0.07791921209988
H            3.61114140603417        1.68758774555765        1.01406603091709
H            3.81862791549668        1.56331284230265       -0.71850798022333
H            2.27427933121601        2.15536410104153        0.00251237496275
H            3.60568243735605       -1.87844577774551        0.08559234344263
H           -1.48188900448508        3.02053456091082       -0.02810250356962
H           -2.66944320750197        2.16479486113281       -0.91189372878115
H           -2.65709624231436        2.14811492836666        0.88854892612915
H           -1.33052998248985       -3.24067269303489        0.81830795098833
H           -1.29310613285896       -3.22606408282551       -0.97158395217967
H           -2.63904607181177       -2.45151592391637       -0.10331216614846
H            1.36369594715365       -3.04696959026185        0.06709884026536
