25
 energy: 44.422625684455 xtb: 6.6.1 (8d0f1dd)
C            2.94697489831194        1.92591875128145        0.30284345602130
N            2.37471679903474       -0.10557907199390       -0.17787910480035
C            2.62356355040441       -1.34780500601586        0.18539651995682
N            1.47057399255827       -2.11661716602879        0.27525637951349
C            0.43311574648619       -1.30679850543588       -0.04679676173626
C            1.01846452515023       -0.06071567735926       -0.26280758142910
C            0.25231147302452        1.09379714060629       -0.54790385820528
O            0.62614298760872        2.12741764125183       -1.05524890437045
N           -1.07985746265893        0.89000491161884       -0.11805219890731
C           -1.86847290577451        2.10444699590475        0.06463347235609
C           -1.71959572346443       -0.31405223610732       -0.05850601611907
O           -2.92541062794039       -0.37491270175066        0.05478372638607
N           -0.92896828643113       -1.48575874748075       -0.09387304050747
C           -1.73397258520311       -2.69995578770865       -0.13640265972937
H            3.80338684513036        1.86028830318279        0.93243825334531
H            3.17417234827303        2.24463180272700       -0.71382929642973
H            2.03124079188046        2.26137032104498        0.70566253591312
H            3.58854975548197       -1.78497089629865        0.39696007344489
H           -1.22916232904783        2.94869481204170       -0.08209862280606
H           -2.70838051197817        2.16135887729348       -0.57051851905033
H           -2.21050667570133        2.19117433626659        1.09185571801484
H           -1.59935258972925       -3.30722843516905        0.76718581924238
H           -1.52867840774513       -3.30565802943512       -1.01859262668460
H           -2.76860551307740       -2.31854869331593       -0.20997686308937
H            1.50397221026505       -3.11302047316332        0.40554039196140
