25
 energy: 30.288965864675 xtb: 6.6.1 (8d0f1dd)
C            3.62893369736827        3.76147134859678        0.20173086987873
N            2.30905959701324       -0.88997867088494        0.00241585826974
C            2.31930260321752       -2.17971739324083       -0.05394540152186
N            1.05323582247513       -2.72469099508159       -0.10926955077467
C            0.20311665143466       -1.66379527588333       -0.06235950125769
C            0.99282371664579       -0.52635679960786        0.00225315732748
C            0.40380057422562        0.78589423854175        0.04923609177768
O            0.96943926060310        1.84641220064298        0.04096928903069
N           -1.00464879866178        0.71992710885472        0.03530869462639
C           -1.73737518745003        1.97994849464039        0.08705535741766
C           -1.79756742920177       -0.40344380750396       -0.04581266585045
O           -3.00665194611695       -0.34035829298369       -0.07714615837603
N           -1.15207791995239       -1.63948120119589       -0.09531824384371
C           -1.94097352763151       -2.84771357390379       -0.17925041249205
H            3.98786711213755        4.10199390393336        1.14018689634378
H            4.18074053345715        3.95191535265866       -0.68977709094997
H            2.73482198938000        3.20478162896970        0.19600874245327
H            3.21135343660726       -2.77114534392660       -0.07622842590138
H           -1.01378304208991        2.79199051800416        0.04778088239098
H           -2.42539649773304        2.04334431677514       -0.75786049179446
H           -2.31718462722963        2.03078447862741        1.01297827060378
H           -1.75741834315267       -3.48391639359123        0.68874252963280
H           -1.70960786681471       -3.39545170057252       -1.09483107544511
H           -2.98806630759171       -2.54657603970710       -0.19645463156360
H            0.82941992304869       -3.70447415304051       -0.14667342688805
