25
 energy: 9.937162190897 xtb: 6.6.1 (8d0f1dd)
C            3.15791857011329        1.42408493172989        0.18077984945159
N            2.42213491006815        0.07465144922394        0.00584100664421
C            2.66270710700720       -1.33772221169670       -0.00070453809683
N            1.45085916734744       -2.03555249538261       -0.05617144150909
C            0.43640873075011       -1.14848144998010       -0.04993960160892
C            1.00607613820734        0.12400836125260       -0.03228969453643
C            0.19135589810988        1.26524450137148       -0.08698116375626
O            0.56970680319923        2.43069128551503       -0.21442417953017
N           -1.20818176446796        0.98302751084469       -0.04203159333506
C           -2.10420634389853        2.12384967620144       -0.04074737393949
C           -1.78995321595886       -0.24211817112958       -0.03335661463346
O           -2.99346154763719       -0.40154475351530       -0.00505481967038
N           -0.92676287708367       -1.35873053426707       -0.04965253015073
C           -1.56140343101406       -2.66047788792131       -0.04697304347728
H            3.58062435282180        1.67261807021587        1.16139383100828
H            3.98801899305676        1.51767096879929       -0.54967543983578
H            2.41176112822776        2.19487412306017       -0.02510614650189
H            3.58446918770806       -1.86978329376118       -0.02341162336238
H           -1.51178488133065        3.03076438461152       -0.04996038644859
H           -2.72517812673624        2.09021803473395       -0.92209473266251
H           -2.69969446959995        2.11915769135037        0.86332827775794
H           -1.29772059014339       -3.23820421972992        0.84113645092720
H           -1.31203104986349       -3.22542059162464       -0.94702381500169
H           -2.64142954595995       -2.48374055323680       -0.03311082441082
H            1.32507152902078       -3.04338800428634       -0.08493850492215
