25
 energy: 37.293009048652 xtb: 6.6.1 (8d0f1dd)
C            3.33344109461178        2.07077756997749        0.42410133076696
N            2.38173173977970       -0.21041597624508       -0.17866526324739
C            2.55841312269381       -1.49855257637244       -0.08224766085198
N            1.37069748839985       -2.21044030454194       -0.01663940399478
C            0.38407890067887       -1.27625950104721       -0.07445911679391
C            1.02017975370560       -0.03513269207859       -0.15242202952412
C            0.23299070054123        1.16278979698831       -0.28681080245662
O            0.62130536407322        2.27574191118896       -0.56134254462423
N           -1.14072700287202        0.92593819548820       -0.08707481338775
C           -1.98615039054722        2.10368545244845       -0.01977247973312
C           -1.77207904153854       -0.28542531432755       -0.01560105575684
O           -2.97636667277190       -0.36601827018513        0.09839930012685
N           -0.97202615253361       -1.43599937601253       -0.06183992310559
C           -1.69044434981919       -2.69281948204269       -0.02960552959035
H            3.49993093464213        2.26475542032414        1.45051918029678
H            4.10825974786633        2.03988155871776       -0.29087309449390
H            2.43415237881216        2.47949296112313        0.03763732861182
H            3.50462459891581       -1.98707429189805       -0.21972909387826
H           -1.35197010583005        2.97305692997819       -0.11012409164665
H           -2.73601566712716        2.09117028350531       -0.78838816457580
H           -2.45933187831174        2.15669172771906        0.95279422175248
H           -1.45105090885953       -3.30007105094847        0.84360172586091
H           -1.52572317574756       -3.27133701572504       -0.93977335839781
H           -2.74778715713848       -2.41389150847316        0.03858270455029
H            1.26930294584308       -3.21662527169506        0.00791896547050
