25
 energy: 16.698085370043 xtb: 6.6.1 (8d0f1dd)
C            3.15207851497533        1.47649542300998        0.21180612493228
N            2.43307332031993        0.07058989352066       -0.01236391535522
C            2.66734820247773       -1.34527725815109        0.03583995158662
N            1.45768670085234       -2.05043579140844       -0.03922769455173
C            0.44134873930001       -1.16550257333716       -0.05566732382973
C            1.01776447433659        0.10774903309351       -0.04187631146136
C            0.20495739336590        1.24842806863298       -0.11660996308992
O            0.57639662761022        2.41390878034713       -0.27430501182786
N           -1.19356173319456        0.97255253104987       -0.04890998029295
C           -2.08027935718703        2.11990706757881       -0.03847078242201
C           -1.78083850483821       -0.24859167011680       -0.03127174158486
O           -2.98491970597594       -0.39700053741091        0.01262661295106
N           -0.92377750739825       -1.37086581056730       -0.05348328991402
C           -1.57952348277386       -2.66344099138773       -0.04277241923497
H            3.54114681263634        1.75494758611441        1.19370353103923
H            3.98217219350770        1.60646065137312       -0.51204786917521
H            2.36890769157244        2.21661118947386       -0.00704504264847
H            3.57550185102382       -1.90381529888186       -0.05243066731248
H           -1.48194274933992        3.02220605963065       -0.05755304435027
H           -2.71146206350720        2.08964178244799       -0.90942966319831
H           -2.66079496303321        2.12434859944226        0.87415451162918
H           -1.32209097685521       -3.24514727663515        0.84426139471859
H           -1.34888899223378       -3.23492770238249       -0.94366610353328
H           -2.65683968139675       -2.46757431616430       -0.01994551915775
H            1.35315962374220       -3.06081729275971       -0.08834624531672
