25
 energy: 36.441148917136 xtb: 6.6.1 (8d0f1dd)
C            3.48908480858628        2.38732737460105        0.46243282629852
N            2.36542295137969       -0.36311123899423       -0.19950111778063
C            2.49175133389740       -1.65235970336507       -0.13105142631405
N            1.28795411100558       -2.32601638918507       -0.06155383476222
C            0.33379892405349       -1.36007523776309       -0.09493591227113
C            1.01338717922443       -0.14822234457209       -0.18092660717059
C            0.26346845993437        1.06335105391804       -0.32736286426618
O            0.71790790400226        2.15284102376562       -0.57658595361935
N           -1.10840678853534        0.88761102261993       -0.10223780290726
C           -1.91235591420063        2.09534732006465        0.00438164201156
C           -1.78401819367965       -0.29989280242167       -0.00375000000860
O           -2.98895662388227       -0.32690608608218        0.12020189832928
N           -1.02473698052172       -1.47357880858551       -0.06257289277604
C           -1.76716000016932       -2.71221508405922       -0.05063191143179
H            3.66029356536168        2.67169197294438        1.46388981325668
H            4.26750416045470        2.41483961803098       -0.21818812583119
H            2.56176667627208        2.66260108963867        0.05298791712196
H            3.42149086033313       -2.16311411934722       -0.25298013034376
H           -1.25190470917241        2.93885228936690       -0.15597677720610
H           -2.68717314163714        2.08000135147388       -0.74437900866251
H           -2.31131800982903        2.17109503212450        1.01301635741390
H           -1.47201035253202       -3.37125340810638        0.76565583223217
H           -1.66408770045826       -3.25298211116449       -0.99257815989052
H           -2.81310392151891       -2.41634405719131        0.10865166260830
H            1.15472859806644       -3.32653833976460       -0.03607680511204
