25
 energy: 38.115150430773 xtb: 6.6.1 (8d0f1dd)
C            3.29894930098387        1.98458908595017        0.39818808487859
N            2.38789723054963       -0.17448294081808       -0.16094086503772
C            2.57412156341567       -1.46538293351569       -0.05928689255965
N            1.38846623534858       -2.18202500482255       -0.00421852650677
C            0.39508900870738       -1.25673403300429       -0.06695249364869
C            1.02264018756536       -0.01132753223114       -0.13462107613963
C            0.22832499507953        1.18079221554622       -0.25569304026754
O            0.60711351612197        2.30285498089122       -0.50915564414913
N           -1.14881490873248        0.93408189941480       -0.08057631076038
C           -2.00377265093599        2.10575824210478       -0.02566597236598
C           -1.77185011518108       -0.28025381697425       -0.02045015533329
O           -2.97644407809112       -0.37166654870178        0.07911565584722
N           -0.96036130821668       -1.42500756770382       -0.05821701386135
C           -1.67002387809887       -2.68603779203206       -0.03059158576046
H            3.47620059965756        2.15766221453177        1.42568101329586
H            4.05608252780882        1.97237953683711       -0.34291299277125
H            2.40520197017924        2.42547414937031        0.03302742987049
H            3.51617917933226       -1.96984188245185       -0.17366211841414
H           -1.37755940594783        2.98289562132008       -0.09917370379777
H           -2.73153292506781        2.09026461808185       -0.81473772609937
H           -2.49792487427832        2.15040055229094        0.93423979870638
H           -1.42918913970239       -3.28562739318274        0.84756595892711
H           -1.49235727049701       -3.26513059543733       -0.93846440725744
H           -2.73039675197914       -2.41650095258169        0.02472886885955
H            1.29556764559870       -3.18822645063776        0.00784114322611
