25
 energy: 36.598249326828 xtb: 6.6.1 (8d0f1dd)
C            3.40424549510816        2.23332108458636        0.45332218766445
N            2.37359557649569       -0.28511601377755       -0.19644134421568
C            2.52512832247370       -1.57370226065764       -0.10872335110819
N            1.33070678538625       -2.26803735909503       -0.03984880012890
C            0.36049765493123       -1.31727360400725       -0.08806022234764
C            1.01724535466933       -0.08908092808457       -0.17728514500807
C            0.24488441697979        1.11456132566436       -0.33962081100533
O            0.66320935750499        2.20709177138312       -0.63936352113072
N           -1.12224039898947        0.90822913392273       -0.09661070896738
C           -1.94708460178287        2.09913101831951       -0.00416331787402
C           -1.77355476389929       -0.29249433918834       -0.00334005911031
O           -2.97650588906786       -0.34622152611346        0.13364064851123
N           -0.99660834392970       -1.45628165095417       -0.06583708623830
C           -1.72829530554206       -2.70380124901057       -0.03781218543150
H            3.56545033204483        2.47200636729200        1.47086985915930
H            4.19336056530128        2.21462010858136       -0.22855280710190
H            2.49355579925137        2.57352275087383        0.04136624997152
H            3.46024354786452       -2.06533454210337       -0.26110091023278
H           -1.30333317295253        2.95641235125446       -0.13347833689699
H           -2.72979784469705        2.08640673151419       -0.73762429597225
H           -2.38148341607973        2.16215366620802        0.99162798842645
H           -1.46148989999326       -3.33636861242768        0.80860217608860
H           -1.60051309602829       -3.27402282453198       -0.95730849028528
H           -2.77909298188735       -2.41060170326113        0.07713155496733
H            1.21379318954397       -3.27212045722999       -0.01053466552161
