25
 energy: -0.924967981784 xtb: 6.6.1 (8d0f1dd)
C            3.18868109986285        1.32455311412140        0.13527581372714
N            2.38060186912865        0.09051882634594        0.01441472847177
C            2.63870851168903       -1.29679992660571        0.00790187504683
N            1.43099602294541       -1.99377024366143       -0.03438767179399
C            0.41814619895375       -1.10976132324004       -0.03361072941835
C            0.97182346382013        0.16466596970878       -0.01752767573951
C            0.15939779236634        1.31113820827262       -0.04727617543498
O            0.54670938798604        2.47864502065263       -0.11589156563365
N           -1.23654089387093        1.00874831931954       -0.03608835268753
C           -2.15373476584771        2.13256542954863       -0.04556738343397
C           -1.80784249839064       -0.22451989319147       -0.03974855007057
O           -3.01056131087280       -0.39754742720355       -0.03673414874571
N           -0.93614184591783       -1.33214932571978       -0.04301882993595
C           -1.52740241208077       -2.65161389453801       -0.05222611439748
H            3.65034740929588        1.49436238091334        1.11639993212983
H            4.00299569638668        1.33016086542411       -0.60958663220736
H            2.52280432823884        2.16541537310260       -0.05231854929732
H            3.58415084877371       -1.78307873590025        0.01072662724620
H           -1.57508342439215        3.05019446833708       -0.03945567062978
H           -2.76424408348306        2.09543751838897       -0.94014600302106
H           -2.77453401333328        2.10495745180989        0.84352127695695
H           -1.24828574129644       -3.22013843409512        0.83762805808588
H           -1.24561224813869       -3.20475665978415       -0.95044058079333
H           -2.61071453059913       -2.51071611627701       -0.05136215209302
H            1.31505663286910       -2.99786413648171       -0.04471589852698
