25
 energy: 30.419635380971 xtb: 6.6.1 (8d0f1dd)
C            3.78905202187956        2.92248545155379        0.32795810131430
N            2.28717898002965       -0.61078063899847       -0.16388278957708
C            2.35064660346457       -1.90270729986378       -0.14595993486704
N            1.11174246697496       -2.49989445403273       -0.09552419690600
C            0.21860333837251       -1.47737917716529       -0.07975121881709
C            0.95500099823805       -0.30428750132245       -0.12071521804216
C            0.30090559413144        0.97686054681552       -0.09514799241901
O            0.80845518166268        2.07146515148172       -0.13240266530253
N           -1.10370816894093        0.84052567655464       -0.05596824913237
C           -1.88893941218570        2.06842220261110       -0.05869393405671
C           -1.84436664273939       -0.31799163944932       -0.03145415495421
O           -3.05497637706915       -0.31133707491336       -0.00448940932772
N           -1.13709262264851       -1.52024808086405       -0.04309287739878
C           -1.87686453411616       -2.76294740969296       -0.02203749792987
H            4.06964788455582        3.20840619887618        1.32036343287784
H            4.50900612296605        2.98910977390211       -0.44915046859592
H            2.76685643505079        2.74603476017855        0.08070735007465
H            3.26417300265408       -2.46348466407982       -0.13982564610464
H           -1.19387029434358        2.90484394140268       -0.13089060031113
H           -2.57087533477601        2.07112425557255       -0.90935616785482
H           -2.47379035476360        2.13747175737739        0.85976177755018
H           -1.60581919883778       -3.36004697207197        0.85300863876211
H           -1.70854738368420       -3.32905465635736       -0.94113923902024
H           -2.93425706388191       -2.50545559442454        0.04250007589790
H            0.91666555494257       -3.48826202240733       -0.08920634690461
