25
 energy: -6.086106222800 xtb: 6.6.1 (8d0f1dd)
C            3.22955035840121        1.22610589910034        0.10003370400173
N            2.32810275309942        0.10430314471830        0.02870738834129
C            2.61235251885897       -1.25396387466493        0.02712492947234
N            1.42138302841498       -1.95287804227059       -0.00576613349023
C            0.40329909125832       -1.07427269102979       -0.01727906300628
C            0.93502552330679        0.20765290411177        0.00117480568372
C            0.12970406054107        1.36336455062186       -0.01585535789069
O            0.51825483069826        2.53476026931417       -0.03217309377792
N           -1.25884498598070        1.03782988286727       -0.03147268569153
C           -2.19986148821439        2.14353594237751       -0.04826004357756
C           -1.81750312508284       -0.20387130406089       -0.04611185902225
O           -3.01847490524063       -0.38514674559916       -0.06624363777257
N           -0.94064540765931       -1.30817957585870       -0.03893835901593
C           -1.49061879019466       -2.64387126478303       -0.05828429877816
H            3.71063980011151        1.31277339155422        1.08047017664968
H            4.01552927620933        1.13505723111148       -0.65684319721087
H            2.64962316646464        2.13235218652784       -0.07617059304323
H            3.57965800883544       -1.69125904289909        0.03566406379397
H           -1.63740275000682        3.07380782779034       -0.02920528727712
H           -2.80491348463870        2.09388946223238       -0.95093142395754
H           -2.84547408708164        2.08587005027009        0.82532109778970
H           -1.19482989729631       -3.20187660078655        0.83334317613986
H           -1.17673537315864       -3.18323515661113       -0.95497801668482
H           -2.57564376203862       -2.53902076864649       -0.06854373982530
H            1.34829973444808       -2.95701137635924       -0.01595408541221
