25
 energy: -4.222140103977 xtb: 6.6.1 (8d0f1dd)
C            3.20835245082133        1.27527196978375        0.11634740900127
N            2.35383491130265        0.09741626310243        0.01921685066768
C            2.62478607176050       -1.27542040007040        0.01782705350504
N            1.42446109538142       -1.97265484169396       -0.01948787346701
C            0.40944993368817       -1.09177723799013       -0.02693040091945
C            0.95285605750513        0.18541076410936       -0.01024533294770
C            0.14444866707155        1.33624855381585       -0.03077406026070
O            0.53576816140847        2.50495298853718       -0.07091145981330
N           -1.24837167777520        1.02291214955545       -0.03328433563007
C           -2.17743066960702        2.13759386497361       -0.04660134100708
C           -1.81476499607502       -0.21437633489112       -0.04287192754918
O           -3.01708184103768       -0.39141015085640       -0.05184497757142
N           -0.93995205241924       -1.31939801831317       -0.04133766407466
C           -1.50985263986798       -2.64716584710570       -0.05533161444405
H            3.68410227431868        1.40463586471768        1.09693646346424
H            4.01101649570371        1.23281522086305       -0.63360429902604
H            2.58718172622376        2.15240332696631       -0.06417163581995
H            3.58146943230698       -1.73801911563053        0.02648230035411
H           -1.60753874050562        3.06192612807079       -0.03377375107822
H           -2.78474707307246        2.09584336311710       -0.94591312263556
H           -2.81112813673984        2.09570331943206        0.83465230633682
H           -1.22223768441453       -3.21024488098894        0.83555775450343
H           -1.21143736393383       -3.19329096141064       -0.95277151575650
H           -2.59412942263568       -2.52394764718683       -0.06041996193793
H            1.32766552359016       -2.97613330758257       -0.02552102459679
