25
 energy: 30.102451353308 xtb: 6.6.1 (8d0f1dd)
C            3.79018906305398        2.99219756259257        0.30266052336872
N            2.27878310054247       -0.63329319898868       -0.12838404230173
C            2.34139684503256       -1.92189409237121       -0.11856930444250
N            1.09718402316964       -2.51552321641917       -0.08855260281025
C            0.20490315667810       -1.49155060444400       -0.07911033678215
C            0.94829734423956       -0.32097753406192       -0.10455981323144
C            0.30103945573224        0.96624185393358       -0.10565605130855
O            0.82116798619953        2.05548165630638       -0.14044513170817
N           -1.10048348756007        0.83991639852639       -0.06191340405508
C           -1.88140040540679        2.07030872931513       -0.05053719781869
C           -1.84522963402455       -0.31647598595841       -0.03054187412448
O           -3.05486683262036       -0.30306601967663        0.00778588905679
N           -1.14991751501007       -1.52672941042275       -0.04589398776078
C           -1.88838056101321       -2.77035034271633       -0.02558553435265
H            4.06118702772073        3.22568792236695        1.31001629213368
H            4.53097223813783        3.03545561731466       -0.46657235926914
H            2.78939376195437        2.70099211344410        0.07050955489009
H            3.24929441214449       -2.48901326756428       -0.13011769919212
H           -1.18964332253275        2.90731710024849       -0.11636918062323
H           -2.56837508106722        2.07892479806820       -0.89584460871165
H           -2.46164936469619        2.13242930876548        0.86956582358293
H           -1.61605136909069       -3.36487073489367        0.84837618172917
H           -1.70052071563181       -3.34353142332750       -0.93556134686608
H           -2.94618088613250       -2.51549285214967        0.02681844370079
H            0.90110506515280       -3.50315558914394       -0.08448432090879
