  25
        -42.16854278
 C          4.2013383986        2.9047398151        0.0247211301
 N          2.1451893083       -0.7805600385       -0.0089975420
 C          2.0401496871       -2.0759599395       -0.0177975292
 N          0.7317625509       -2.4866194658       -0.0135451166
 C         -0.0212165544       -1.3577164755       -0.0024258589
 C          0.8822370093       -0.2866960526        0.0005704507
 C          0.4102541171        1.0757109064        0.0046237395
 O          1.0946778888        2.0769235879        0.0148329345
 N         -0.9872485321        1.1459299541       -0.0081984709
 C         -1.5960654218        2.4647078579       -0.0256373697
 C         -1.8860555027        0.0930050625        0.0003698613
 O         -3.0770819144        0.2772030683        0.0018820913
 N         -1.3600849926       -1.2057955951        0.0056646624
 C         -2.2681205919       -2.3323058477        0.0216667408
 H          4.6933775495        3.1309026376        0.9505492278
 H          4.7633420341        2.9058378772       -0.8892512612
 H          3.1474860366        2.6859500626        0.0130177810
 H          2.8703484246       -2.7531969512       -0.0283043348
 H         -0.8009126272        3.2080320409       -0.0362773698
 H         -2.2257357085        2.5713932602       -0.9105092169
 H         -2.2255283178        2.5983021265        0.8555478207
 H         -2.1102002860       -2.9360484949        0.9169293212
 H         -2.1291121371       -2.9478788918       -0.8685686571
 H         -3.2852649309       -1.9404064115        0.0294569061
 H          0.4074439422       -3.4420789161       -0.0220253118
