72
 energy: 100.826474723095 xtb: 6.6.1 (8d0f1dd)
N           -1.53660263555965        2.86273564632163        2.19104508538289
C           -1.63460963014377        2.14104299037240        1.17245785169910
C           -2.83878333858875        2.06654050692382        0.28442586249047
C           -3.42466771587430        0.66683943512334        0.36491927336034
C           -4.38053117155800        0.25316543894962       -0.56560300743436
C           -4.94312974653598       -1.00854766003540       -0.50983940753075
O           -5.87399052410529       -1.49198733854788       -1.37804981130846
C           -6.39990417660848       -0.63045321537584       -2.35491706817055
C           -4.54406686217690       -1.90670800677405        0.50653430987209
O           -5.13805325700028       -3.13151077693382        0.47125869456909
C           -4.83391624186373       -4.05417288460093        1.48587624214283
C           -3.61160014129482       -1.48859874608452        1.43759071915862
C           -3.05906922670649       -0.21477640968360        1.36532206311832
C           -2.30838320054121        2.34701210603477       -1.14587039780912
C           -1.49599784271671        1.20520445228060       -1.76952369835066
C           -0.17668204604990        0.98645554458825       -1.12246935052145
N            0.36974764137046       -0.21912516028374       -0.97543611488816
C            1.81416428998788       -0.34735975877532       -0.81795823925933
C            1.94412155682848       -0.62514305410747       -2.27379741057658
C            4.82930766889429       -0.33546891459765       -0.61190361212863
C            5.48072055684587        0.83702773666255       -0.80244493183111
C            6.79584663696945        0.91179180570260       -0.36772707010611
C            7.41089070915876       -0.17447970089495        0.20735285555088
O            8.70913154276648       -0.22916245586427        0.63556564255227
C            9.52527927886336        0.88960874828336        0.46553408651204
C            6.69213260143245       -1.35808328202645        0.41687489237293
O            7.37152853241860       -2.35073207543022        1.04831264545358
C            6.73453981806793       -3.58494745446822        1.28212281001338
C            5.38019944409671       -1.42911983439149       -0.00688735536488
C           -0.43256962639753       -1.36904223966527       -0.64505642400567
C           -3.95251634516439        3.08585590861921        0.64872504586885
C           -4.53910082411541        2.79924540252827        2.03029079970820
C           -3.47960867502722        4.53671833736619        0.58606662743762
H           -4.69087797655825        0.93351023441469       -1.34259402867129
H           -6.87125404261673        0.24910893374921       -1.90331358855780
H           -7.15615652273490       -1.21217816105392       -2.87892111164532
H           -5.63460766722629       -0.30819368942567       -3.06978182486987
H           -5.12889710703405       -3.68060746436667        2.47186453924046
H           -5.41267411518032       -4.94670593101300        1.25256523578657
H           -3.76814044371512       -4.30875992906340        1.49920730231011
H           -3.31004394143802       -2.14152934503402        2.24134319026134
H           -2.35986753010235        0.09230223740219        2.12820998644437
H           -3.15350817617831        2.54277371212049       -1.80441846857243
H           -1.69169770878130        3.24679800488048       -1.11643186076690
H           -2.08007263053444        0.28886511340738       -1.73934991852537
H           -1.30936188557711        1.46216200209667       -2.82196504257939
H           -0.80597733147870        1.52894169509965        0.76823945167104
H            0.54409687389295        1.79767745642161       -1.21472394056346
H            2.08915056150580       -1.11154101736783       -0.07468015255085
H            2.25301732916461        0.58520777406461       -0.49460963834154
H            1.95902484884454        0.20496573535654       -2.94783208120487
H            1.88338398319656       -1.60795231656161       -2.64482584553119
H            5.01036704774821        1.69896809267675       -1.25855811819784
H            7.33045752567082        1.83391966997828       -0.48835526311224
H            9.15541455511062        1.76224879273383        1.01635426238190
H            9.64425800760153        1.15485291663111       -0.59192803781051
H           10.49589695763274        0.59035464726784        0.87717306720348
H            7.52857938303887       -4.19231143241374        1.72855296814175
H            5.89531504459949       -3.49978788814518        1.98522649901061
H            6.38334073877358       -4.06458891416689        0.36031029909399
H            4.79287801385874       -2.32318227720547        0.17216469143426
H           -1.26931975508700       -1.57137502948715       -1.31811806096997
H           -0.85337377746291       -1.17341885730405        0.34216966125208
H            0.17463301709569       -2.26549249638938       -0.59455647146083
H           -4.74832594684221        2.95504708667081       -0.09513575037040
H           -3.77766620925624        2.92895079005625        2.79480068028986
H           -4.92911171061121        1.78580488007997        2.08793009769319
H           -5.35309088330828        3.49091424504900        2.23154424092831
H           -2.66356940803421        4.69019938909250        1.28357147712783
H           -3.15801000090640        4.81303837953097       -0.41372722071252
H           -4.29886829697178        5.19500508533132        0.86697905411050
H           -0.64525567957958        2.84888417913069        2.68166214478694
