72
 energy: 98.327974472101 xtb: 6.6.1 (8d0f1dd)
N           -1.54493030319012        2.85936498673101        2.21301201356812
C           -1.63596861407995        2.14576236790650        1.18342246281560
C           -2.84787901256491        2.07078080376803        0.29347231485383
C           -3.43756514975975        0.67186315359538        0.37284789773226
C           -4.38710902460224        0.25402311570586       -0.56191821930794
C           -4.94724121995741       -1.00843866637333       -0.50759427456482
O           -5.87515404973110       -1.49528845270166       -1.38064605971317
C           -6.40163170570601       -0.63584822265977       -2.35893627678649
C           -4.55760825002119       -1.90324057730468        0.51404980202460
O           -5.14976677950880       -3.13122711899474        0.47677218621862
C           -4.85456361906444       -4.05018325687465        1.49673691944811
C           -3.63406447496183       -1.48157034614703        1.45152683719472
C           -3.08233726104177       -0.20759965020398        1.37943258623442
C           -2.31716371561346        2.34814678528622       -1.14004993774272
C           -1.48567844461216        1.21116721442887       -1.75437722159960
C           -0.18448434600258        1.01417105707914       -1.01138738072213
N            0.42982068946661       -0.27340017394191       -1.14880496266556
C            1.86248935841844       -0.37942688199021       -0.92779298300222
C            1.33352513360694       -0.60729502063865       -2.29287550979761
C            4.91171178295864       -0.26371101535050       -0.40893505819976
C            5.62757812425596        0.88161572852176       -0.63696991698041
C            6.97754671255478        0.92834916711689       -0.28326323725143
C            7.58323927064675       -0.17367668337907        0.29113563719020
O            8.89734096937480       -0.23990352515611        0.68379144626676
C            9.70263932190463        0.89432024370198        0.51483159142722
C            6.83778126155758       -1.35035051404304        0.51381760933622
O            7.53141318979455       -2.38690218563669        1.08175271773005
C            6.86037786017477       -3.59288166374168        1.32139308412530
C            5.49574969802818       -1.37838549929747        0.15645203713587
C           -0.39051131299530       -1.37978412593420       -0.65959902589304
C           -3.96448579141700        3.08711756644860        0.66021888282447
C           -4.54364841156463        2.80239549953534        2.04509138334376
C           -3.49482282577183        4.53882740270618        0.59363004816949
H           -4.69199219578246        0.93401197927575       -1.34062270655625
H           -6.87653962674725        0.24388092707834       -1.91209199543316
H           -7.15448635713580       -1.22158878830127       -2.88464965184511
H           -5.63591022494171       -0.31219693434697       -3.07271235759867
H           -5.16192886612305       -3.67742290883361        2.47960904867198
H           -5.42744125655581       -4.94468080373853        1.25668930786046
H           -3.78841943591420       -4.30151309282350        1.52219529468363
H           -3.33867525036668       -2.13238771569632        2.25957232248830
H           -2.38354646247469        0.09955992185782        2.14252173232614
H           -3.16457934813193        2.55570201604195       -1.79679265458876
H           -1.69824296678672        3.24604972655253       -1.10841366460241
H           -2.08247754208839        0.29807197308820       -1.73682701467768
H           -1.32367636268505        1.46906849334579       -2.81644662068927
H           -0.81162302322428        1.54616595851227        0.73934580732911
H            0.53904870577062        1.79648794035345       -1.23731111280117
H            2.21616393223886       -1.21864502050887       -0.34529499012589
H            2.39606535495906        0.53551798759467       -0.70760073284722
H            1.43791335441006        0.17757313170195       -3.02668109904702
H            1.27767173167336       -1.60802046691714       -2.69128546705418
H            5.17150826835361        1.75366340937240       -1.08691532079742
H            7.53677505246410        1.83422275670745       -0.46571795358569
H            9.31799112416039        1.75566477283743        1.07325106656590
H            9.80760658132131        1.16726416364179       -0.54177900814063
H           10.67913614200640        0.61824227563485        0.91141131039010
H            7.60234214148815       -4.25718266018887        1.76351126274119
H            6.02889222394970       -3.46531678827418        2.02481112728471
H            6.48359786181495       -4.04184626788455        0.39459129117618
H            4.91108006242137       -2.27387157801082        0.32095645309817
H           -1.18001370144586       -1.61286356785326       -1.37386979319500
H           -0.85714299455955       -1.09104168981323        0.28317300472224
H            0.21919194760889       -2.26962133232312       -0.51065478293119
H           -4.76658871384751        2.95432928591082       -0.07654298707246
H           -3.77210382769583        2.92819386436742        2.79750813502675
H           -4.93413723835471        1.78922204463065        2.10483724149361
H           -5.35440779981283        3.49661932570757        2.25436651490247
H           -2.67197344229714        4.69525846544485        1.28391486012054
H           -3.17707914954729        4.81348869747515       -0.40873033106619
H           -4.31367501810192        5.19597465997749        0.87814623656407
H           -0.64102354773127        2.83446516318201        2.68277716191442
