72
 energy: 101.548841723865 xtb: 6.6.1 (8d0f1dd)
N           -1.53019706424586        2.86446240454519        2.18233285981250
C           -1.63466675024080        2.13587101130559        1.16925848214962
C           -2.84462819616827        2.06625095965525        0.28712335674384
C           -3.43208157205019        0.66746719589458        0.36743156853408
C           -4.38560092572593        0.25320512219714       -0.56527913563302
C           -4.94917423775061       -1.00788731461317       -0.50880594598717
O           -5.87777005907841       -1.49185792658408       -1.37896033766021
C           -6.40035722482403       -0.63181406464725       -2.35887302995622
C           -4.55359662556542       -1.90428201993819        0.51070541917130
O           -5.14756272556377       -3.12852491796501        0.47583723114994
C           -4.84513408348817       -4.05103179736262        1.49126538150485
C           -3.62433892979563       -1.48509316262729        1.44431485232100
C           -3.07060751173926       -0.21191244096064        1.37132422282220
C           -2.31656687495846        2.35072525359626       -1.14197178744647
C           -1.51045541002712        1.20797214688314       -1.76824290486839
C           -0.19149585843520        0.99311530748965       -1.11396610473638
N            0.36616651671568       -0.21472573774538       -0.99172150583276
C            1.80551952138463       -0.35899433157726       -0.85431268930108
C            1.84124195109602       -0.63451614416137       -2.31555790197115
C            4.85544052516139       -0.32449989741933       -0.57509382866518
C            5.50662300848396        0.84592473528199       -0.78215006863406
C            6.82472751858236        0.91728578653483       -0.35561321112408
C            7.43829897893672       -0.17194339880928        0.21681906759038
O            8.73716706963931       -0.23022918672438        0.64222402724815
C            9.55576711983892        0.88676594211314        0.47542575576383
C            6.72081759237879       -1.35707588904302        0.42797014190864
O            7.40046929321278       -2.35092394607756        1.05561745849518
C            6.76234750331008       -3.58417036030033        1.29106673996435
C            5.40614454453399       -1.42648355027944        0.01351696926547
C           -0.44809390386755       -1.36919007619841       -0.65435481654062
C           -3.95710205951600        3.08629540065102        0.65392078659915
C           -4.54134176297711        2.80073607732802        2.03654206451354
C           -3.48512422580079        4.53735536464273        0.58876664105829
H           -4.69307057579227        0.93251043797499       -1.34426906557520
H           -6.87301844638721        0.24829743185557       -1.90985208363340
H           -7.15478466932773       -1.21465722534393       -2.88419649835716
H           -5.63292153322961       -0.31093513807857       -3.07199375324285
H           -5.14527160930213       -3.67857605349745        2.47599866762887
H           -5.42080963829202       -4.94468178873520        1.25492422010032
H           -3.77882358316892       -4.30306759058254        1.50876841344873
H           -3.32614796162326       -2.13639711885158        2.25062125470894
H           -2.37411512101257        0.09622646246013        2.13642657864060
H           -3.16114532851832        2.55385946283971       -1.79823071968454
H           -1.69452235655784        3.24680685359399       -1.11016676506218
H           -2.09704661593227        0.29277237522535       -1.74200631801876
H           -1.32832744252826        1.46819953651581       -2.82114445832535
H           -0.81325654188902        1.51564730085722        0.76395663011315
H            0.53214271814510        1.79338160763918       -1.21733722067513
H            2.08361099872257       -1.13326846752745       -0.12496156243958
H            2.26751109141718        0.56860521066515       -0.54294302913720
H            1.88684289294156        0.20361366235425       -2.97664685549426
H            1.80112759350228       -1.62109549053622       -2.68277240919872
H            5.03602357484976        1.70705582684533       -1.23845883319564
H            7.35970939212797        1.84027257663830       -0.47494108692639
H            9.18919315670066        1.75836362543961        1.03005401256327
H            9.67411748274468        1.15553058032486       -0.58118150113221
H           10.52570654458682        0.58111776477326        0.88529050779195
H            7.56031483452328       -4.18947971776347        1.73346027572638
H            5.92599202241954       -3.50007875764158        1.99797122265414
H            6.40738434436824       -4.06402575767594        0.37083221273226
H            4.81835775046244       -2.32020412002281        0.18509028029590
H           -1.30993386278405       -1.56744020022338       -1.31054098316363
H           -0.86760938131454       -1.15666407651843        0.33490423575425
H            0.17638818458371       -2.26400710829415       -0.61475162862225
H           -4.75440773251141        2.95421565264515       -0.08830373610989
H           -3.77867433012693        2.93018364994950        2.79968210672476
H           -4.93240034511369        1.78776815240645        2.09530799289972
H           -5.35430813221473        3.49319513575967        2.23910972089517
H           -2.66750174100965        4.69223933826036        1.28414757733546
H           -3.16620204256767        4.81349836650096       -0.41202429743362
H           -4.30418069487043        5.19522848534690        0.87127681886272
H           -0.64204734831553        2.85396556799802        2.67971354900818
