72
 energy: 36.454590309929 xtb: 6.6.1 (8d0f1dd)
N           -1.52132501990074        2.82695533155917        2.22880616059989
C           -1.58892079069507        2.14549337946378        1.17380954575928
C           -2.78491395073226        2.06491543393936        0.26590146059777
C           -3.36485570141614        0.66008918364709        0.34401873003271
C           -4.33889001819388        0.25089714018034       -0.56897242170622
C           -4.89235364150914       -1.01476590399286       -0.51856843973513
O           -5.84349850265735       -1.49249493106831       -1.37110652375899
C           -6.39697710638365       -0.62027574292086       -2.32256680915651
C           -4.46624638605476       -1.92524172188482        0.47301474066804
O           -5.06024777651503       -3.15401722448834        0.43695959711392
C           -4.74305941092442       -4.07895196076752        1.44414819365268
C           -3.51082094499793       -1.51647121285609        1.38363820974365
C           -2.96716738566925       -0.23815411778097        1.31733527281481
C           -2.24738421120622        2.32273575905854       -1.16877484334179
C           -1.36528678453647        1.19765952856244       -1.72978571446255
C           -0.07277055560917        1.07107489104090       -1.01850151119641
N            0.54829818594954       -0.17009548583358       -0.86079465190550
C            1.94514739637292       -0.18212175061649       -0.47785582954804
C            2.78859327653355       -0.55769175264163       -1.71521191001681
C            4.49690771279056       -0.42179449627479       -0.91436634210042
C            5.23044096384448        0.75323739940081       -0.96538805302639
C            6.53975876944876        0.86358942246345       -0.48611360671733
C            7.17747647088441       -0.19187343451452        0.12799118805406
O            8.46507062408276       -0.22038451418121        0.57346822413879
C            9.27736087467361        0.91026260138949        0.38542148836759
C            6.42748838530561       -1.36380048870378        0.33010190390295
O            7.11821615799611       -2.35327598184108        0.97612336729415
C            6.50626448087470       -3.59805881024856        1.21077186098134
C            5.12057501291236       -1.44394727551270       -0.15828929889810
C           -0.24137888946017       -1.34742649140037       -0.62516515662850
C           -3.90879356926106        3.08050743262931        0.61186920213940
C           -4.51683361152823        2.78714249425120        1.98272742259538
C           -3.43420193921897        4.53168011286729        0.56546140378361
H           -4.67244227711638        0.93916394663628       -1.32920021958707
H           -6.85831226210866        0.25400415777152       -1.85044461180906
H           -7.16604568139898       -1.19727776990008       -2.83406617501194
H           -5.65084202879998       -0.28721401349329       -3.05268919964092
H           -4.99753093815342       -3.69751543153416        2.43909060257329
H           -5.34756661143563       -4.95997862313529        1.23210436610334
H           -3.68285286135760       -4.35560977130231        1.42355582017826
H           -3.18157252070756       -2.18239215950512        2.16577996820841
H           -2.24547548953617        0.05800490467607        2.06256843444823
H           -3.08892926614068        2.45780509448434       -1.84950697804688
H           -1.66920967164860        3.24790987144997       -1.16307311810548
H           -1.92345110000562        0.26319680510894       -1.68803626937667
H           -1.14705034579613        1.41849016721313       -2.78377282934346
H           -0.73369759014902        1.60108411330191        0.71034689749234
H            0.61704769370683        1.90990429540326       -1.09591936762502
H            2.13889076869879       -0.87534521323855        0.35798580232450
H            2.26900245911494        0.81135892282467       -0.16806856754713
H            2.50254300130878        0.13444621024507       -2.52322662731251
H            2.43168991850620       -1.53711719578817       -2.04939911814751
H            4.79845944733424        1.63140259707808       -1.42530230020762
H            7.08910766226031        1.77990641086803       -0.64299976187580
H            8.88502592951022        1.78890801591416        0.90834194559586
H            9.40633327972931        1.14790245884264       -0.67631434073543
H           10.24911314156999        0.65065301600625        0.81241441095942
H            7.27468550635177       -4.21423400520549        1.68776114653076
H            5.64858284993379       -3.50256324751596        1.88505425884249
H            6.18760124032201       -4.07758121356563        0.27900141873133
H            4.57572181620184       -2.35609249103550        0.06990539443282
H           -0.75186811949311       -1.65015062382722       -1.55144185525217
H           -0.97829699095213       -1.17081159296579        0.18606248396703
H            0.39069004930149       -2.18138066392422       -0.32701416025865
H           -4.69369587383105        2.95787367615066       -0.14529760106658
H           -3.76587101610690        2.91711544718549        2.75773027427984
H           -4.89978753728513        1.77025654078087        2.02986551859565
H           -5.33888666091883        3.47313523202337        2.17322105891333
H           -2.62890711727507        4.68079459134104        1.27701242779118
H           -3.09378930729218        4.81169681486470       -0.42732031108236
H           -4.25790640755014        5.19020708459773        0.83372657487267
H           -0.62032036088116        2.79519841808401        2.69633427218360
