72
 energy: -5.277376640187 xtb: 6.6.1 (8d0f1dd)
N           -1.49592652873576        2.77879103536571        2.23493762863482
C           -1.55412085790154        2.15105683315055        1.14916611098362
C           -2.75083532465586        2.06060642372731        0.24652421307012
C           -3.32115487803339        0.64984915392851        0.32736819562720
C           -4.30755513025742        0.24675508294872       -0.57546004026108
C           -4.85466861877363       -1.02090925701943       -0.52875533473644
O           -5.82245127637921       -1.48961974747825       -1.36513017503396
C           -6.39585327240598       -0.61099436355733       -2.29893429316062
C           -4.40766030039003       -1.93980792999004        0.44707041684329
O           -5.00140945558741       -3.16558302479809        0.41372064402744
C           -4.67514756057915       -4.09701381036453        1.41285700205406
C           -3.43460829750628       -1.53926155689455        1.34200275652355
C           -2.89782074689053       -0.25754863246021        1.28142767510223
C           -2.20229530715218        2.30439094773407       -1.18409020236748
C           -1.27465108153659        1.18218256844664       -1.67625039932840
C           -0.00548971240639        1.12235978611565       -0.90704868444097
N            0.62718990496855       -0.06528406613667       -0.60006451272400
C            1.99913446101600       -0.05395789905736       -0.20244866798111
C            2.92987359125218       -0.54616792055129       -1.34059214093241
C            4.36983108712346       -0.43865936310030       -0.86968245105352
C            5.09367966697094        0.73204291103379       -1.03228662665663
C            6.40507885952279        0.84417417970618       -0.58635911700243
C            7.02106429711540       -0.20696192844123        0.06714003626505
O            8.30146407275829       -0.21284964636552        0.53355704387356
C            9.09822822799987        0.92556248716671        0.32850315240108
C            6.28829479718526       -1.39469575553092        0.28678671027951
O            6.97402805074366       -2.37873796212491        0.93653155820290
C            6.34281649118324       -3.61260213179338        1.16051024527815
C            4.98232601014426       -1.48452741295326       -0.16431733697168
C           -0.07780413468408       -1.31230667276134       -0.62089299555093
C           -3.87411955511269        3.07769913503402        0.58708403975793
C           -4.49795037920510        2.77713251283335        1.94883157686575
C           -3.39919920852079        4.52936823469574        0.55099964130833
H           -4.65997057859012        0.94390474068907       -1.31809197108106
H           -6.85060632793054        0.25794030157382       -1.81142447151457
H           -7.17220471023095       -1.18753181070053       -2.79975501377601
H           -5.66515358465970       -0.27161619334131       -3.04141829760167
H           -4.89968822522680       -3.71238231297874        2.41345250646101
H           -5.29980272604393       -4.96642874691225        1.21347017271831
H           -3.62108978527347       -4.39194513111485        1.36518961971056
H           -3.08601308510544       -2.21350832003907        2.10840758667976
H           -2.15983591630325        0.02820970206908        2.01502454156746
H           -3.03468372418340        2.39517514700769       -1.88265750006649
H           -1.65318611759565        3.24737312885602       -1.19797409578051
H           -1.81729414034219        0.23844578330175       -1.63324922295271
H           -1.02646942989583        1.38356556678355       -2.72584307431089
H           -0.68998428307898        1.64516821640731        0.64868462406050
H            0.64330485375512        1.98139182883822       -0.96215553585462
H            2.12771793889792       -0.69457210274637        0.67721707576096
H            2.29938220054450        0.96140533302785        0.06890666472869
H            2.72381945632974        0.07614385553032       -2.21298862252956
H            2.63756308660276       -1.57028611917048       -1.58150372557538
H            4.64591010253390        1.57218676252849       -1.54234936387156
H            6.94712618899019        1.75898137670709       -0.77030202421714
H            8.68430955417693        1.80721619431849        0.82955231413583
H            9.23012014303856        1.14208352100767       -0.73710414340159
H           10.06629287341350        0.68688963704743        0.76768883062703
H            7.08642558766045       -4.23460071035552        1.65875463992612
H            5.46794316708249       -3.50643653990464        1.81089410626939
H            6.04364171515205       -4.09102770606478        0.22166513578031
H            4.42372123321260       -2.39337424150586        0.00555722453007
H           -0.29830831257983       -1.63133484641171       -1.64547266464787
H           -1.01889149054690       -1.23079105898565       -0.06615026729090
H            0.53675304004400       -2.07468088917457       -0.14778889503700
H           -4.65051297387050        2.95743109203270       -0.17777430022928
H           -3.75816701602530        2.90524323747846        2.73312194566179
H           -4.87785629204493        1.75895902434897        1.98629800347212
H           -5.32467446980240        3.45962410549307        2.13099650048408
H           -2.60369190186721        4.68598070480120        1.27321514155282
H           -3.04680806868766        4.81531299419200       -0.43672794119332
H           -4.22851034445486        5.18365139007147        0.81019534723440
H           -0.60243287699608        2.77320172425774        2.72303093281770
