72
 energy: 81.995942696744 xtb: 6.6.1 (8d0f1dd)
N           -1.53967789583755        2.84377974315542        2.22385570715921
C           -1.60972170460382        2.15281311531503        1.17855034079834
C           -2.80492901080887        2.06654020069325        0.27351429314017
C           -3.38710288432430        0.66314357207039        0.35226063968742
C           -4.35476598720976        0.25222147005159       -0.56726693730908
C           -4.91194233798674       -1.01229747043340       -0.51504512314884
O           -5.85391565124895       -1.49286871170139       -1.37381319279600
C           -6.39788266845851       -0.62438464228183       -2.33482237595997
C           -4.49581111842821       -1.91869924593766        0.48597099015001
O           -5.08921168872359       -3.14570598673702        0.44964624371610
C           -4.77693763293291       -4.06982591480783        1.46009528602125
C           -3.54860547938921       -1.50595240882508        1.40419607219781
C           -3.00163695507725       -0.22920418317532        1.33554063844299
C           -2.26896676024683        2.33248704388861       -1.16037073995746
C           -1.41647667625829        1.20110988431210       -1.75200961005830
C           -0.10164539816220        1.02045207007123       -1.09680484255253
N            0.47404406733985       -0.19585478181866       -0.94509433125511
C            1.89761022737175       -0.24788753613849       -0.62070785475805
C            2.49145006261724       -0.57652731855387       -1.96767640343707
C            4.64913701491397       -0.38980653976807       -0.80029513699287
C            5.33498460786058        0.78637641194763       -0.90584297179361
C            6.64078153426704        0.88352120972608       -0.43527106259254
C            7.26721816502651       -0.18563703688427        0.15997024590547
O            8.56201642004464       -0.22445651174459        0.59925957513941
C            9.37135306205660        0.90250244435636        0.41571615499941
C            6.53324805307234       -1.36052354632394        0.36351714844836
O            7.21840492444848       -2.35290037280051        1.00630447730763
C            6.59396127612642       -3.59219371767795        1.23803263889536
C            5.22915160946457       -1.43960996340802       -0.10564967930707
C           -0.31465753697874       -1.35777146100152       -0.63128469257527
C           -3.92607159487454        3.08281164859985        0.62550087064077
C           -4.52621761559943        2.79194585656253        2.00048270966423
C           -3.45177087899789        4.53366461972102        0.57295257574246
H           -4.67991385649641        0.93741035761068       -1.33405064274976
H           -6.86298739681155        0.25188479049509       -1.87024879403771
H           -7.16239129236115       -1.20255233163105       -2.85127042831904
H           -5.64430420903006       -0.29514093902338       -3.05898818964879
H           -5.04670746917159       -3.69084084454783        2.45166862511975
H           -5.37157518119440       -4.95563433092526        1.24061561671161
H           -3.71439297007978       -4.33770222626279        1.45233423472331
H           -3.22957681408861       -2.16704334424879        2.19443939056768
H           -2.28870267178186        0.07128477794156        2.08772627232924
H           -3.11319168181671        2.48923578427497       -1.83248240041109
H           -1.67732392279891        3.24872511453184       -1.14577855165058
H           -1.98403231309745        0.27337824396421       -1.71167454954078
H           -1.20921513799248        1.43560036930490       -2.80410883982608
H           -0.75985083093712        1.58304089328450        0.74288737485145
H            0.59444748357387        1.86310599062635       -1.15178320951989
H            2.12929498322107       -0.96763133735207        0.18461742280143
H            2.25323002112883        0.72398139757322       -0.29059986880593
H            2.29926661341918        0.17779086825293       -2.71703752969145
H            2.24788820759603       -1.55454849412032       -2.31994434284709
H            4.87964463989002        1.65628625061112       -1.36232911596555
H            7.18186869449903        1.80107461434200       -0.57808886201761
H            8.98667041538181        1.77961116194363        0.94848745300553
H            9.49579684040951        1.15083268779185       -0.64493602050998
H           10.34391612406276        0.63141672998047        0.83645232928307
H            7.37017869661686       -4.20781001432160        1.70440149140311
H            5.74212500461323       -3.50029090561282        1.92260257261417
H            6.26207973574769       -4.07154709846130        0.30967735990938
H            4.66051043735721       -2.34213942392216        0.10807242165885
H           -0.96502430895630       -1.63259813605672       -1.47029657807424
H           -0.89124051706977       -1.14725367591825        0.28618467302052
H            0.31395387063605       -2.21893929611596       -0.42730358204978
H           -4.71480602622147        2.95700087837646       -0.12674014801758
H           -3.77166271296943        2.92220415590732        2.77191094413479
H           -4.91174298399806        1.77637171923999        2.05186211449934
H           -5.34522215968241        3.48003655188190        2.19478507868796
H           -2.64282668630722        4.68358541118787        1.27967916320812
H           -3.11813648531340        4.81189910406243       -0.42235215622413
H           -4.27345050792007        5.19250760254164        0.84567824618526
H           -0.63641303314629        2.81712498631189        2.68869869660764
