72
 energy: 70.315992511455 xtb: 6.6.1 (8d0f1dd)
N           -1.53287401989421        2.83856147881345        2.22568863040763
C           -1.60240144535415        2.15163996947375        1.17695447216923
C           -2.79806781189818        2.06623321097982        0.27103247415819
C           -3.37950682487733        0.66226530689614        0.34957319357045
C           -4.34946010972662        0.25190045260483       -0.56765012666064
C           -4.90547625940184       -1.01300808714718       -0.51604981931974
O           -5.85043182141801       -1.49269648078554       -1.37278214640612
C           -6.39762975230437       -0.62303049481232       -2.33067825116365
C           -4.48601687490687       -1.92086440985960        0.48173959976372
O           -5.07963261809582       -3.14851305019545        0.44541319526742
C           -4.76567300398629       -4.07292631986552        1.45476154810278
C           -3.53601359717962       -1.50942453653551        1.39739721807910
C           -2.99006697433036       -0.23215480884767        1.32948328572694
C           -2.26185655456235        2.32931303341790       -1.16335210326177
C           -1.39957003282513        1.20014795166079       -1.74543252061580
C           -0.09161147666190        1.03743479415749       -1.07260566813509
N            0.49883974247885       -0.18802307840056       -0.91883356525823
C            1.91307228164886       -0.22549099904330       -0.57266778899004
C            2.59147824167716       -0.56834783472885       -1.88299415061266
C            4.60311706347418       -0.40067768572118       -0.84044936994765
C            5.30125417008843        0.77556772547658       -0.92673552823142
C            6.60734506215122        0.87724500633946       -0.45113940075215
C            7.23739914769651       -0.18758153251934        0.14972673258690
O            8.52999759790393       -0.22327140655686        0.59082264051538
C            9.34015153395980        0.90495885401478        0.40557931902598
C            6.49820071834693       -1.36110574095597        0.35256975972918
O            7.18497144246961       -2.35281963163854        0.99652754175027
C            6.56481053111505       -3.59403097048823        1.22886109565778
C            5.19394557196584       -1.44117269669419       -0.12531173258481
C           -0.29097281606023       -1.35478825066151       -0.62950176721108
C           -3.92030737629541        3.08198184142545        0.62098301401474
C           -4.52304793987264        2.79035750251973        1.99462841608824
C           -3.44589674001597        4.53291123982878        0.57057445630941
H           -4.67741986075260        0.93804847216583       -1.33235211921033
H           -6.86151018602010        0.25260121860193       -1.86364092882874
H           -7.16367174419160       -1.20079970427958       -2.84549085994647
H           -5.64650316811047       -0.29250711468467       -3.05680974986493
H           -5.03032882329471       -3.69314216218476        2.44751089150630
H           -5.36356793074718       -4.95719789289786        1.23775684516050
H           -3.70386512644872       -4.34366283844208        1.44270316171661
H           -3.21363121949529       -2.17213053384210        2.18498720015409
H           -2.27422839070096        0.06684886773843        2.07937663045906
H           -3.10533593948704        2.47873878273751       -1.83824991022446
H           -1.67472585322039        3.24857117145397       -1.15177243439201
H           -1.96378040548966        0.27004610302612       -1.70431672823640
H           -1.18873627472814        1.42984779111567       -2.79817702367607
H           -0.75099983776634        1.58977560860946        0.73238392422418
H            0.60218136638541        1.87915616009106       -1.13411846141066
H            2.13442256608713       -0.93659125620370        0.24289840459070
H            2.25892281497175        0.75404942808129       -0.24988006143949
H            2.36951793184196        0.16478274389737       -2.65471272684052
H            2.31328037852081       -1.54672116974251       -2.23263679568779
H            4.85265785358049        1.64827510741339       -1.38321150178485
H            7.15106758404155        1.79414296931930       -0.59917744714078
H            8.95296791695901        1.78261678091697        0.93508140082014
H            9.46600394019861        1.14973313113173       -0.65547679324943
H           10.31252359765937        0.63784053123738        0.82830594191055
H            7.33852347782409       -4.20988649753057        1.69872610479732
H            5.71101349898232       -3.50111187101025        1.91001661359306
H            6.23738994642743       -4.07329095105911        0.29924718474648
H            4.63236551511286       -2.34621509971468        0.09519982925324
H           -0.89467965702170       -1.64109859050582       -1.50046750831275
H           -0.92490247384790       -1.15356805334745        0.25345671574789
H            0.33931956480693       -2.20729924743047       -0.39237330041915
H           -4.70774758940945        2.95729104719327       -0.13294633560018
H           -3.76971047140996        2.92060072200303        2.76728323384829
H           -4.90772839526956        1.77435035585340        2.04469527021851
H           -5.34305227323684        3.47779175612411        2.18757444464904
H           -2.63817339213288        4.68231462794216        1.27894328299114
H           -3.10996017498365        4.81170728939925       -0.42386922129048
H           -4.26823362100451        5.19166091679364        0.84183911659377
H           -0.63021898606258        2.80922251199316        2.69021459443587
