72
 energy: 96.735453126308 xtb: 6.6.1 (8d0f1dd)
N           -1.54386584820800        2.85603954147804        2.21129163149215
C           -1.62155857362763        2.15150221075405        1.17758635393957
C           -2.81807317959722        2.06663641695191        0.27745069790769
C           -3.40171225673050        0.66466295888228        0.35724142248928
C           -4.36486674646639        0.25273700501617       -0.56665576841424
C           -4.92452626364133       -1.01073216254367       -0.51302096560378
O           -5.86159646604445       -1.49276202643057       -1.37570651696202
C           -6.39864667386390       -0.62674194271090       -2.34290379918791
C           -4.51522642681656       -1.91400753802043        0.49424151577646
O           -5.10884455303945       -3.14002979494710        0.45815026553644
C           -4.79986329036765       -4.06367349369220        1.47031282052164
C           -3.57359845962611       -1.49909005964637        1.41754979198781
C           -3.02427845057248       -0.22355690917089        1.34733164389207
C           -2.28339574834638        2.33802190984440       -1.15549012314509
C           -1.44914318296845        1.20266268145415       -1.76551774001545
C           -0.12601529785506        0.99299084908134       -1.13153003421566
N            0.42641703600793       -0.21150216795484       -0.99303891103084
C            1.86240449300731       -0.29186638736929       -0.70826095847983
C            2.26411650402191       -0.59654993118719       -2.11947793911960
C            4.73128817508590       -0.36578833860455       -0.71591421315303
C            5.39777463419880        0.80869014400638       -0.86240892606589
C            6.70598142773476        0.89576729132671       -0.40648953935819
C            7.32596598371817       -0.18126720312021        0.17947245771987
O            8.62322792939853       -0.22642073542572        0.61478419682315
C            9.43325955878097        0.89761688030564        0.43554784981330
C            6.60073473619969       -1.35981961029834        0.38498298852065
O            7.28264618405867       -2.35226947392410        1.02410115479738
C            6.65067368924867       -3.58863373241860        1.25539660624172
C            5.29464100105807       -1.43566825463821       -0.06406177024605
C           -0.36083038028802       -1.36321440337059       -0.63673879832326
C           -3.93668158958422        3.08393740317277        0.63428450872732
C           -4.53144657285212        2.79475016531239        2.01206136873200
C           -3.46281964319243        4.53472115746647        0.57805474354697
H           -4.68400245330964        0.93602075467118       -1.33765403413957
H           -6.86618286920532        0.25087418798883       -1.88340519264666
H           -7.16005540560844       -1.20596199202790       -2.86245493635625
H           -5.64029345451088       -0.30022871756353       -3.06330956761111
H           -5.07964621396880       -3.68682740146689        2.45974093983330
H           -5.38809146018629       -4.95235244018382        1.24551408730056
H           -3.73593782796124       -4.32612902920113        1.47098139728889
H           -3.26188328310494       -2.15684723932312        2.21342709829775
H           -2.31713305107448        0.07981881143359        2.10402781933101
H           -3.12894525432914        2.51024190945310       -1.82166998667146
H           -1.68278347719520        3.24831424632277       -1.13464325880568
H           -2.02356473641239        0.27965714305820       -1.72502574307667
H           -1.25117672289425        1.44632529494576       -2.81660824687967
H           -0.77766025316753        1.56431237097265        0.76017455495066
H            0.57720649403513        1.83198288322677       -1.18450663835186
H            2.11224007404434       -1.02833641536665        0.07581353181560
H            2.24531927964755        0.66349898417119       -0.37151232862015
H            2.16300432190625        0.19710892601801       -2.82948313207314
H            2.10350844729092       -1.57631927794173       -2.47371299511901
H            4.93223217948054        1.67380159820260       -1.31926271175248
H            7.24287243558655        1.81490079229856       -0.53895339018752
H            9.05391599401433        1.77313024341484        0.97523651950673
H            9.55505567283675        1.15282677374945       -0.62407872992103
H           10.40564364711370        0.61696593960269        0.85253510075532
H            7.43292474123515       -4.20234837299695        1.71415864121850
H            5.80325339694869       -3.49928487460172        1.94703982606218
H            6.31057054788694       -4.06782235673511        0.32942635059845
H            4.71425052375917       -2.33341375997334        0.13436344157956
H           -1.09708177491851       -1.61049573837451       -1.40716000293839
H           -0.83778055007028       -1.14859393106766        0.33346831208415
H            0.26117098447556       -2.23941982716379       -0.49749187489399
H           -4.72820222861708        2.95612517332255       -0.11455729629362
H           -3.77433717787367        2.92501723464736        2.78096581810552
H           -4.91884607516596        1.78009219108098        2.06616757462292
H           -5.34841860104378        3.48432393734240        2.20897588768057
H           -2.65131295144652        4.68552983849573        1.28146030782673
H           -3.13380052678100        4.81209153239489       -0.41893173064944
H           -4.28345361038925        5.19339830728431        0.85404194769303
H           -0.64416632190077        2.83164196378912        2.68545585270213
