72
 energy: 101.631889230093 xtb: 6.6.1 (8d0f1dd)
N           -1.52422112814009        2.86652136323622        2.17835188466579
C           -1.63378499247775        2.13324357942200        1.16849769622334
C           -2.84972825735804        2.06623025401296        0.29052309393748
C           -3.43920157563732        0.66819458385576        0.37012470753248
C           -4.39046086631801        0.25304162368751       -0.56488760170044
C           -4.95511811099081       -1.00746761392396       -0.50785517677193
O           -5.88080312332040       -1.49314939051759       -1.38073777770587
C           -6.40065418887063       -0.63360373121899       -2.36280058007698
C           -4.56303016870646       -1.90188111980082        0.51492028523384
O           -5.15695876061583       -3.12557987917578        0.48047022514215
C           -4.85632547784141       -4.04790006013196        1.49673228720022
C           -3.63700179699301       -1.48156022757722        1.45103964655962
C           -3.08194185075639       -0.20903388758810        1.37740440821143
C           -2.32306867939932        2.35343626583350       -1.13760014295740
C           -1.52022705171305        1.20977708772461       -1.76489798436816
C           -0.20000639624437        0.99453635588374       -1.09365291614989
N            0.37597559152499       -0.21736641511450       -1.02417339333061
C            1.80657960799112       -0.36756991481875       -0.88508157189268
C            1.73791932624540       -0.64217251683075       -2.34471468283263
C            4.87856478861946       -0.31296151862081       -0.53824586511984
C            5.53184640918357        0.85466084448180       -0.76166051861537
C            6.85330716218586        0.92291429021946       -0.34425095996265
C            7.46516540921402       -0.16931124969163        0.22639098707371
O            8.76483973743549       -0.23147783399947        0.64898348578123
C            9.58601771895600        0.88383612694052        0.48530001575772
C            6.74843937890909       -1.35607701724491        0.43927406234070
O            7.42890112634214       -2.35158026769682        1.06240191262309
C            6.78987126495395       -3.58355726469351        1.29999306487783
C            5.43030820395356       -1.42268903667811        0.03521270456756
C           -0.43573543756513       -1.36739689413493       -0.65393349435857
C           -3.96156378581529        3.08678292074431        0.65904521039057
C           -4.54351401664695        2.80229930240602        2.04277908074676
C           -3.49059398207166        4.53806689328854        0.59131769165115
H           -4.69526076225812        0.93134359400320       -1.34570055603990
H           -6.87459605656680        0.24703861943282       -1.91613361787650
H           -7.15336502115544       -1.21735991163775       -2.88942852773050
H           -5.63133449082444       -0.31370169350560       -3.07428163429742
H           -5.16166345423486       -3.67652673617657        2.48012358230001
H           -5.42900195976547       -4.94251813995575        1.25718341289450
H           -3.78952160812483       -4.29744054074884        1.51835370563468
H           -3.34223604403936       -2.13113306302316        2.25999367169851
H           -2.38815949133353        0.10006478679469        2.14476922119151
H           -3.16725290475786        2.56372050513806       -1.79155797017879
H           -1.69712645652177        3.24689740626782       -1.10362980253996
H           -2.11276321196186        0.29695900584644       -1.74407656759434
H           -1.34371852556134        1.47417076481792       -2.81695400872551
H           -0.81942355919071        1.50692676099920        0.75608080495419
H            0.51712818887679        1.79404683438905       -1.21329351946831
H            2.08189012095618       -1.15473373575014       -0.17253456345510
H            2.29223865224753        0.55447401011811       -0.58805710271115
H            1.81352814739928        0.19938922586605       -3.00069015915836
H            1.71519901998254       -1.63214252790128       -2.71018153313265
H            5.06148760104148        1.71501956417000       -1.21824755126194
H            7.38902558330648        1.84671476376688       -0.46518820259557
H            9.22273546580931        1.75437766612883        1.04372087160085
H            9.70371022438605        1.15615454037129       -0.57043914902171
H           10.55538611477969        0.57198022211261        0.89326022128022
H            7.59179673714076       -4.18686175200091        1.73840606536006
H            5.95641628599599       -3.50021529007718        2.01064166569249
H            6.43109466312236       -4.06353605551488        0.38135531090560
H            4.84343956928607       -2.31709231674624        0.19837103581880
H           -1.26321650171484       -1.57071031313592       -1.32144589090498
H           -0.89104474537045       -1.13638260355954        0.30976600950545
H            0.18499847495532       -2.25642614507022       -0.58944613961694
H           -4.76033293621025        2.95331384610463       -0.08153098731508
H           -3.77952283712709        2.93136298037052        2.80456134901457
H           -4.93580735672847        1.78985608619103        2.10263490711097
H           -5.35546463910762        3.49558996715300        2.24662464630849
H           -2.67137012280976        4.69459123751805        1.28457521544370
H           -3.17428739621603        4.81403268418138       -0.41047330631235
H           -4.30946047423422        5.19553633046647        0.87534885543165
H           -0.63689620228609        2.85301175086394        2.67725740072649
