72
 energy: 13.467902022950 xtb: 6.6.1 (8d0f1dd)
N           -1.51147468944769        2.81052193961010        2.23106931200682
C           -1.57560148797418        2.14512022668160        1.16637533427270
C           -2.77246948529867        2.06332447428932        0.25958387695325
C           -3.35008799816408        0.65706675691660        0.33840198662540
C           -4.32854612454253        0.24979478485058       -0.57075676093023
C           -4.87999992886422       -1.01654003575482       -0.52162531132787
O           -5.83649371659864       -1.49155610468868       -1.36909207709669
C           -6.39672000080298       -0.61731729476784       -2.31475172527582
C           -4.44694901872748       -1.93007537765164        0.46430437586601
O           -5.04068150612755       -3.15828582910313        0.42875278843222
C           -4.72043716032992       -4.08506320455501        1.43353292885890
C           -3.48557067663231       -1.52392041361898        1.36954878343600
C           -2.94399507200336       -0.24453825891429        1.30511172351302
C           -2.23178626791381        2.31628104276768       -1.17428200288184
C           -1.33256876986848        1.19317535594087       -1.71321347539693
C           -0.04952325935866        1.09186675517305       -0.97682160002505
N            0.58450676279644       -0.13643266858600       -0.77582768334546
C            1.97299366821176       -0.14047645635141       -0.38712004411476
C            2.87892993818852       -0.55706755334827       -1.58891599844851
C            4.43968488130051       -0.43398577152465       -0.93314602620963
C            5.17902255167829        0.74249593021982       -0.99310300585658
C            6.48950982071188        0.85581302127132       -0.52081291472880
C            7.12305739015941       -0.19657422664011        0.10661302405185
O            8.40849077831703       -0.21827128956445        0.55897342308821
C            9.21677678336473        0.91493630895640        0.36658680485468
C            6.37391405419623       -1.37084534363717        0.31446116442350
O            7.06556572427200       -2.35931763185366        0.96192803970549
C            6.45130685992699       -3.60208844367362        1.19346406118855
C            5.06698358250869       -1.45246568910010       -0.16793340289566
C           -0.18833713612360       -1.33754150530623       -0.62478216879063
C           -3.89714598864657        3.07916784460685        0.60309970528029
C           -4.51033760179459        2.78396409425719        1.97124079257336
C           -3.42242979969061        4.53045990760203        0.56076493909960
H           -4.66824265899090        0.94063883123162       -1.32561091917028
H           -6.85576361957376        0.25528232836812       -1.83755709253109
H           -7.16837912230385       -1.19405678329122       -2.82271049760649
H           -5.65562988934149       -0.28202027091808       -3.04890858117962
H           -4.96489123231326       -3.70222899910487        2.43040262581431
H           -5.33155561230281       -4.96247999147434        1.22597192287984
H           -3.66208541276026       -4.36756666073517        1.40401711303990
H           -3.14978075323985       -2.19281529445431        2.14626643521180
H           -2.21680739630047        0.04825417471949        2.04622921927339
H           -3.07073961572439        2.43634552898567       -1.86094685077433
H           -1.66358573476900        3.24767463788334       -1.17497742289807
H           -1.88626799133244        0.25587637382936       -1.67159137848804
H           -1.10310508871086        1.40636961174451       -2.76614207749483
H           -0.71735011252993        1.61454487011438        0.68972354016996
H            0.62690991458882        1.93733122048366       -1.05303846012103
H            2.14173592872715       -0.81477763652954        0.46656408888225
H            2.28110466572854        0.86260854934279       -0.08694724578776
H            2.58536997278571        0.10888972889562       -2.41435394878238
H            2.50687355290841       -1.54706062852785       -1.88805684165793
H            4.74583597356540        1.61382178672199       -1.46301939378907
H            7.03933271917810        1.77105864800034       -0.68742944103296
H            8.81690957357961        1.79419648864773        0.88267920085921
H            9.34788151337585        1.14614619859889       -0.69621163620486
H           10.18705630262176        0.66240313297317        0.79847500937502
H            7.21216215759192       -4.22038822850677        1.67715459338382
H            5.58812751865775       -3.50373335868584        1.85994056116283
H            6.13942909134183       -4.08100293860074        0.25917657841888
H            4.52219516320418       -2.36431849929660        0.05100792101163
H           -0.60241263687859       -1.64983757694372       -1.59370918750299
H           -1.00849983173401       -1.18979413572694        0.10438976791805
H            0.44198851209012       -2.14914233085118       -0.26592403634136
H           -4.67932528562880        2.95804208311008       -0.15695456428975
H           -3.76261472005520        2.91368096436740        2.74915625948787
H           -4.89233321541150        1.76662895812020        2.01556990899091
H           -5.33407313284961        3.46880007968241        2.15882487386671
H           -2.61998831356187        4.68076159185513        1.27572258958402
H           -3.07797430156237        4.81245979830899       -0.43026137681118
H           -4.24777350897415        5.18795470664269        0.82620733455024
H           -0.61311749047669        2.78519192169564        2.70517344420827
