72
 energy: 100.279377786050 xtb: 6.6.1 (8d0f1dd)
N           -1.54029436957650        2.86264443095373        2.19808438058457
C           -1.63134184047662        2.14676697930599        1.17446385043092
C           -2.83206456573984        2.06686718545921        0.28195339022343
C           -3.41696649646041        0.66624533195305        0.36246202033541
C           -4.37531838173952        0.25313073242859       -0.56587127072830
C           -4.93695282843898       -1.00924090832336       -0.51088247790091
O           -5.86977707976504       -1.49241627762146       -1.37741998495087
C           -6.39940728731762       -0.62919304010327       -2.35094174789889
C           -4.53449326415082       -1.90913326646004        0.50243902061521
O           -5.12838404073595       -3.13441633973497        0.46679319374877
C           -4.82263408563970       -4.05736868216654        1.48058752796255
C           -3.59892771947539       -1.49208342717971        1.43095073890543
C           -3.04744977985091       -0.21766073661774        1.35938543653938
C           -2.30010034675605        2.34373526787619       -1.14954118522510
C           -1.48213877016888        1.20386760073535       -1.77115854594028
C           -0.16266298097108        0.98058915047985       -1.13070816575857
N            0.38138308504027       -0.22322460597856       -0.98999361791662
C            1.82611762461345       -0.33107346180075       -0.78268353538125
C            2.04401345871297       -0.61500833134658       -2.23011929432962
C            4.80020929451565       -0.34551294811994       -0.64555391340724
C            5.45419898341903        0.82800136099065       -0.82242342616461
C            6.76665679953086        0.90641734611252       -0.38031209762157
C            7.38304857815491       -0.17690467827388        0.19805543996888
O            8.68086750844655       -0.22818460734973        0.62886160474226
C            9.49471320167421        0.89239102080639        0.45556730966152
C            6.66283658446581       -1.35909468953834        0.40604835812990
O            7.34256158411756       -2.35121281908647        1.04045724318020
C            6.70673134997782       -3.58605794650794        1.27322972804583
C            5.35321265459773       -1.43174442025159       -0.02610924064732
C           -0.41081871417347       -1.37195644462459       -0.64835147413823
C           -3.94747232448937        3.08529580985465        0.64369942599637
C           -4.53669315701019        2.79778650872909        2.02408987382667
C           -3.47403743611838        4.53607379580914        0.58332840682018
H           -4.68850077621004        0.93439047607295       -1.34098802250821
H           -6.86944977846281        0.24974734955104       -1.89665413459219
H           -7.15746665068962       -1.20989288041802       -2.87354585271684
H           -5.63637354499381       -0.30546861147149       -3.06760958944560
H           -5.11252134002595       -3.68270529220218        2.46776939563150
H           -5.40452710894919       -4.94868772949715        1.25019533377907
H           -3.75744151773735       -4.31455869413268        1.48973354272616
H           -3.29401657255010       -2.14665098637323        2.23210896135683
H           -2.34557922865562        0.08824821115334        2.12015248444163
H           -3.14565743962481        2.53208803872684       -1.81026666883191
H           -1.68859802873094        3.24694087482415       -1.12264803519111
H           -2.06306828225462        0.28559049231323       -1.73650416049215
H           -1.29096089571213        1.45705948949054       -2.82242670908248
H           -0.79707580482189        1.54224991054730        0.76811879144224
H            0.55399981483458        1.80388064149063       -1.20874534085250
H            2.09567162251609       -1.08582826694246       -0.02546451467430
H            2.24532219641429        0.60880550342820       -0.45168595878660
H            2.02884570862872        0.20570933191477       -2.91437010845545
H            1.96150544842479       -1.59604717708820       -2.59805503199735
H            4.98442939375594        1.69064784505699       -1.27860210799833
H            7.30136738695635        1.82759848375914       -0.50372236298896
H            9.12162120753304        1.76604567280485        1.00260287777816
H            9.61449667612279        1.15420093762836       -0.60269075922575
H           10.46593917233434        0.59944672800052        0.86902010847486
H            7.49665093731049       -4.19569313459511        1.72383867833080
H            5.86465946255055       -3.49951437978080        1.97246141249654
H            6.35916396685565       -4.06554624459481        0.34999541079155
H            4.76696592886488       -2.32634963822570        0.15954009976594
H           -1.21856964296317       -1.58326327363719       -1.35358043703338
H           -0.85001569674113       -1.17599504641368        0.33124087083991
H            0.20647388200090       -2.25854105305742       -0.56971135237932
H           -4.74181312570329        2.95551754389494       -0.10180247665159
H           -3.77666432085411        2.92775784712275        2.79006535849496
H           -4.92580501792298        1.78392756699798        2.08060351681172
H           -5.35169059699307        3.48873821831046        2.22390310402924
H           -2.65957181280913        4.68841363140045        1.28292130639948
H           -3.14980341567692        4.81260510331865       -0.41548868328293
H           -4.29366299988544        5.19461321493740        0.86255136110952
H           -0.64618201660800        2.84352364247262        2.68327283133145
