72
 energy: 98.612021405120 xtb: 6.6.1 (8d0f1dd)
N           -1.54487689825550        2.86366944178122        2.21531056155226
C           -1.63731403135758        2.14751344831694        1.18691116297516
C           -2.84702797216671        2.07239784731284        0.29554150038783
C           -3.43719646282229        0.67334986400918        0.37494049043317
C           -4.38739679184933        0.25440054692746       -0.55867237938725
C           -4.94754462506170       -1.00787058751221       -0.50519038353240
O           -5.87509034519999       -1.49585335546442       -1.37918366352490
C           -6.40295384754419       -0.63498620092606       -2.35597823521763
C           -4.55535685498413       -1.90373781122146        0.51422773067608
O           -5.14712591985927       -3.13232421188743        0.47641592812044
C           -4.85096673338757       -4.05100049041244        1.49674838696295
C           -3.62957150067898       -1.48237482071223        1.44945287698161
C           -3.07835206425349       -0.20813854606210        1.37801326860841
C           -2.31367520403961        2.34472957328392       -1.13772615167314
C           -1.47837753158857        1.20719902565223       -1.74289478447900
C           -0.17869379921727        1.01556347002553       -0.99367121336860
N            0.43531671180592       -0.26374005298588       -1.12471309672479
C            1.87437628601695       -0.38235988173424       -0.93102293398662
C            1.31943931977517       -0.60898515238921       -2.29281213669683
C            4.89923429106437       -0.24440859978000       -0.38404025123974
C            5.62424256115552        0.89429223492002       -0.61810465061999
C            6.98025910430608        0.92989415474901       -0.28290701613968
C            7.58419282951120       -0.17436748708096        0.28902289691197
O            8.90145461711324       -0.24682487859752        0.67089976279819
C            9.70255196635443        0.89361042034243        0.51452359581742
C            6.83088143957423       -1.34583416761332        0.51169008578129
O            7.52565838245784       -2.38781854365974        1.07463593064055
C            6.85546884701125       -3.59265028805495        1.31871262386360
C            5.48500844899906       -1.36334186539893        0.17029762253458
C           -0.38514224721997       -1.38089823215513       -0.66037921574985
C           -3.96404707960040        3.08786756045520        0.65867957157618
C           -4.54243938996723        2.80353408697892        2.04379057657296
C           -3.49436064071459        4.53920189174689        0.59253201526505
H           -4.69218741836717        0.93380057184655       -1.33807549820380
H           -6.87601019438408        0.24501389258018       -1.90791840229107
H           -7.15675459455875       -1.22008606865537       -2.88093869696539
H           -5.63780769883071       -0.31134360322554       -3.07018802868929
H           -5.15382981402738       -3.67647264732892        2.47990271393324
H           -5.42707198455633       -4.94416087751690        1.25936585991805
H           -3.78482913567611       -4.30428078984808        1.51833345378885
H           -3.33025312502795       -2.13483439407155        2.25458013619223
H           -2.37705508492596        0.09767318815634        2.13919745079242
H           -3.15988661064879        2.54522413500976       -1.79871731393149
H           -1.69844540803239        3.24557941327635       -1.11038290280323
H           -2.07302218992847        0.29272113910157       -1.72655693259605
H           -1.31104131522395        1.46475904907110       -2.80448623841492
H           -0.81373460369612        1.54758231449651        0.74116982904123
H            0.53683933730890        1.80395800457225       -1.21906421661082
H            2.22572801913071       -1.23024086708279       -0.35297478617325
H            2.42496111088182        0.52686064795327       -0.71361490380359
H            1.41394372574226        0.16534820395029       -3.04267193707233
H            1.22017945538791       -1.61209115439840       -2.68028624765196
H            5.17442817066925        1.76471608700367       -1.07705546815803
H            7.54051814163035        1.83203858345081       -0.47001148603893
H            9.31249995730292        1.75481078959491        1.07155072821952
H            9.80833203381952        1.16817880398939       -0.54128292489450
H           10.67946090056737        0.62543650767931        0.91192257513505
H            7.59380530043514       -4.25893481823247        1.76160943986577
H            6.02697830254694       -3.46217309934119        2.02431192790611
H            6.47382876413790       -4.04260249871586        0.39326346887170
H            4.90664477763890       -2.26398492776769        0.33404901524015
H           -1.15030011155402       -1.63138809901644       -1.39768159465127
H           -0.87482815233286       -1.09509049264623        0.27308878653481
H            0.23025546614457       -2.26188132565885       -0.49048358159620
H           -4.76625176877397        2.95459967055622       -0.07799565290225
H           -3.76989565155541        2.92951262632957        2.79559126137929
H           -4.93243992687673        1.79008429614098        2.10340147084434
H           -5.35346859106262        3.49743774534717        2.25309425194458
H           -2.67182136972777        4.69465972739464        1.28337971281623
H           -3.17564088197218        4.81338912716066       -0.40962624897899
H           -4.31303138045052        5.19664039047725        0.87654653490492
H           -0.64093387180167        2.83450663696588        2.68495438066419
