72
 energy: 99.164069904889 xtb: 6.6.1 (8d0f1dd)
N           -1.54733408344057        2.86548444307251        2.21400631142170
C           -1.63752370655033        2.14888116661546        1.18629186038564
C           -2.84768262323037        2.07156144909167        0.29459155562424
C           -3.43807779732642        0.67236191799066        0.37370540017684
C           -4.38604770108060        0.25397489621985       -0.56203132171867
C           -4.94689404100410       -1.00820723672970       -0.50776729961026
O           -5.87555740914253       -1.49463228006292       -1.38017635179659
C           -6.40141481380014       -0.63561375044770       -2.35888384762869
C           -4.56058679877164       -1.90218250417002        0.51522836749364
O           -5.15291589192535       -3.13037582307672        0.47754348652434
C           -4.85665695102484       -4.04910199465610        1.49698856667043
C           -3.63981991463027       -1.47974205085801        1.45486094879368
C           -3.08831192817850       -0.20564897686669        1.38326010789162
C           -2.31245022894327        2.34448609491020       -1.13768117641107
C           -1.47275885076508        1.20870174474940       -1.74073612184659
C           -0.17171236039756        1.01649303012541       -0.98320505434282
N            0.43575025257717       -0.26738376517339       -1.13756410404331
C            1.87201284221275       -0.37587345727046       -0.93954338486494
C            1.29315165131709       -0.61261700482787       -2.29303221770393
C            4.89624753373694       -0.24813384517616       -0.37194907867147
C            5.62389718076652        0.88427101183953       -0.63587314843179
C            6.97519641156773        0.93359273771826       -0.29347643406114
C            7.58066437556484       -0.17020337444094        0.28142830998022
O            8.89431849265890       -0.23991445961713        0.68883868401341
C            9.71239588723970        0.88127376621994        0.52549791796325
C            6.84113941273314       -1.34950348840634        0.51476542720878
O            7.54554340200542       -2.38072775310104        1.08564784254848
C            6.88155819123548       -3.59002129886670        1.32671536266100
C            5.49563592839688       -1.37544013923630        0.16430247617601
C           -0.37560490158416       -1.38725356827164       -0.66708257332175
C           -3.96548706525660        3.08696228813300        0.66225582084373
C           -4.54413718632604        2.80276403668753        2.04691889965332
C           -3.49810202804052        4.53932112276206        0.59613871858165
H           -4.69137659127188        0.93385332311603       -1.34023085047231
H           -6.87676437220306        0.24473850029140       -1.91374088001169
H           -7.15427726829972       -1.22091651408334       -2.88531609865780
H           -5.63544281520809       -0.31185463607928       -3.07228666997690
H           -5.16606505015846       -3.67749940379976        2.48013871779319
H           -5.42751999305082       -4.94464741249593        1.25618364440315
H           -3.79052667092063       -4.29905644830324        1.52342406100513
H           -3.34577292409811       -2.12984016038742        2.26376652131255
H           -2.39110770842571        0.10196751503044        2.14735904675471
H           -3.15959388310738        2.54491584050246       -1.79872953476870
H           -1.69991695069852        3.24720965757377       -1.10849433671838
H           -2.07054929646298        0.29540920557425       -1.73079465734127
H           -1.29857968258100        1.46264798005371       -2.80226334249716
H           -0.81140036347404        1.54861534570832        0.74950549548349
H            0.53937260208652        1.80862271129682       -1.22121046808195
H            2.20514730440542       -1.21133725749278       -0.35573343974745
H            2.41610398356791        0.53405190709014       -0.73794221573188
H            1.43528916457247        0.15626697856897       -3.04634786501413
H            1.26301223841924       -1.62591385209804       -2.70365979444652
H            5.16336429228349        1.74976495392221       -1.09260468294786
H            7.53626264751792        1.84357755350970       -0.45992329290220
H            9.34384613304435        1.74939039577306        1.08578938821192
H            9.83112681161939        1.16027592618780       -0.52821923830527
H           10.68754026935155        0.59454858476434        0.91883758722361
H            7.62055686528152       -4.25867530217285        1.76457896781187
H            6.05531275022963       -3.46901437757457        2.03688599578047
H            6.49751054942109       -4.03697561815275        0.40044861271658
H            4.91365250657028       -2.27638566019805        0.31308526931225
H           -1.09681380905584       -1.66343870372328       -1.43979401146593
H           -0.91387347819639       -1.09816164478406        0.24093453144775
H            0.24998741676000       -2.25263372921312       -0.45252382708987
H           -4.76977013769081        2.95298768993984       -0.07120570770560
H           -3.77115090650390        2.92840113585329        2.79677807817593
H           -4.93455475394155        1.78977572820665        2.10714775126110
H           -5.35418434229121        3.49775375706556        2.25694405292548
H           -2.67413267575439        4.69683405716385        1.28489733644996
H           -3.18287056519578        4.81432377395016       -0.40688630140417
H           -4.31696287216328        5.19531802907106        0.88206791972273
H           -0.64256884179383        2.83421007597876        2.68311412595510
