72
 energy: -99.250675569380 gnorm: 0.005700058113 xtb: 6.6.1 (8d0f1dd)
N           -1.89083639269171        2.89027015197764        2.23892203439247
C           -1.84475377697656        2.14897870074774        1.23639745002573
C           -2.97608145006209        1.94651566276753        0.26679618714082
C           -3.44800362191570        0.50216544610064        0.32982734964886
C           -4.34400950094323        0.02046170511081       -0.62674032465389
C           -4.82642254314277       -1.27729486703451       -0.57812786854238
O           -5.70015217113505       -1.81781352758379       -1.45076706338557
C           -6.28349148063422       -1.00352722236065       -2.44090460836036
C           -4.39400542392571       -2.14679252085502        0.46055632920887
O           -4.91085457311945       -3.39018936769621        0.42821223799893
C           -4.61402443224426       -4.28424016490963        1.47610538282512
C           -3.50383765656822       -1.66211735310395        1.40596998655387
C           -3.04093710007737       -0.35410454084834        1.34180612790270
C           -2.38655972284144        2.26167932948444       -1.13312960724901
C           -1.45606010496121        1.17204711502105       -1.69469458690209
C           -0.14704791777086        1.08430170738492       -1.00916489670891
N            0.45911933434944       -0.04422954041515       -0.66557104650116
C            1.82596626457083       -0.03904113480656       -0.19680491859000
C            2.80580342434071       -0.48368298131897       -1.29963438775699
C            4.21558870886063       -0.49574590670894       -0.76542660050504
C            4.98704653080445        0.65699442840280       -0.82878938318613
C            6.28448709470300        0.63848595596087       -0.30683838263088
C            6.70204159816656       -0.51702858113002        0.23580857834379
O            8.62710883979494        2.28843935479027        0.09283026656760
C            9.53703975416798        3.21125573230138       -0.19556314502384
C            6.02159132356641       -1.70416703604408        0.34234327290557
O            6.59541113117415       -2.77461237312505        0.90816767611516
C            5.89052117076496       -3.99217080247748        0.97024171948418
C            4.71855616999379       -1.65512028020691       -0.18648549102697
C           -0.18394367504149       -1.32972998537174       -0.80392562779270
C           -4.20125645727839        2.86750728912275        0.54649509272420
C           -4.84521944819073        2.54595623033788        1.89297243492153
C           -3.86544445678954        4.35446793030168        0.47757889221755
H           -4.68286388718967        0.67608496080088       -1.41165723779428
H           -6.81472778029296       -0.15498857122641       -1.99965007199168
H           -6.99465264117705       -1.64211221620342       -2.96115948518474
H           -5.53765944286437       -0.63941102576898       -3.15490773332656
H           -4.92737038141881       -3.88363251065420        2.44458233108994
H           -5.18057566188005       -5.18743401042410        1.25860137954780
H           -3.54672726945081       -4.52569138722315        1.50793469700198
H           -3.17321541228601       -2.29233797773951        2.21539876289211
H           -2.37620385810752       -0.00354999963792        2.11611239694760
H           -3.20780928345567        2.39591146220292       -1.83620465760047
H           -1.84190573840447        3.20484462915122       -1.07914915813542
H           -1.97476147191576        0.21500369639685       -1.69226490486697
H           -1.25527955547799        1.44083542183367       -2.74026356541790
H           -0.93992063617497        1.59135263275105        0.92230453799483
H            0.43074979693208        1.99216349829905       -0.91575054976158
H            1.91235295704169       -0.71350672831523        0.65981517462163
H            2.09506702678522        0.96628142846780        0.13292649460425
H            2.73251337943093        0.21148927364863       -2.13773221596638
H            2.53112003145591       -1.47849561644897       -1.65381694884123
H            4.60652040759753        1.55768556375117       -1.28496069623139
H            6.93918918995800        1.50225836079455       -0.33062775591162
H            9.20203609147652        4.22665728211787        0.09435873304594
H            9.77230677623191        3.24011348640530       -1.28047563858605
H           10.49254534783442        3.01994019490583        0.33807026298174
H            6.57053618948576       -4.69932092205946        1.44101885537838
H            4.98615727307314       -3.90256809880762        1.58128896436009
H            5.62769337637299       -4.35554740059896       -0.02839346437252
H            4.10421846212130       -2.54317699094563       -0.15377429143055
H           -0.34737734122745       -1.57848560957388       -1.85457273498780
H           -1.14722938791569       -1.33241972245299       -0.28825279397293
H            0.44696508410750       -2.09577719078827       -0.36066836663086
H           -4.93590327392115        2.64975810489489       -0.23729353767189
H           -4.15466139260061        2.77083688981293        2.69942333702873
H           -5.13066349039695        1.49848670343707        1.95332749613779
H           -5.73797663231821        3.15161238423776        2.02339106663716
H           -3.10950561591041        4.60543828663136        1.21527108256089
H           -3.51703611860468        4.64786604865378       -0.50907035749629
H           -4.75965585175651        4.93119795831551        0.69895183243129
H           -1.05711310710460        2.97885868004305        2.81067052336462
