  25
        -42.16431290
 C          3.4367814547        0.8412373350       -0.2279146745
 N          2.4268951436       -0.1751621843       -0.1309866066
 C          2.6162650602       -1.4835587888        0.0035646682
 N          1.4203277426       -2.1186865234        0.0932251505
 C          0.4437789133       -1.1773869276        0.0146188571
 C          1.0711682394        0.0650297905       -0.1278096343
 C          0.3415174521        1.2605647770       -0.2235943141
 O         -1.3496467514        3.2195280080        0.7366310707
 N         -0.9822053123        1.0772435080       -0.1686040711
 C         -1.8160050079        2.2990609247       -0.1768278718
 C         -1.6808336000       -0.1345123218       -0.0725017645
 O         -2.8766758018       -0.2035877383       -0.0944957704
 N         -0.8914528450       -1.2985182720        0.0414792725
 C         -1.5477939819       -2.5826705344        0.1915963639
 H          3.8555235353        1.0565266386        0.7568366780
 H          4.2389207370        0.5184852535       -0.8895117691
 H          2.9751440692        1.7466177991       -0.6169579419
 H          3.5683383777       -1.9741747066        0.0362096601
 H         -1.8209045857        2.6926297001       -1.1974382605
 H         -2.8283300284        2.0141250701        0.1162900270
 H         -0.5878551122        3.7018646693        0.3819452229
 H         -1.2546929483       -3.0496900173        1.1321025807
 H         -1.3017078015       -3.2364622266       -0.6456549232
 H         -2.6223355965       -2.4052713177        0.1996699017
 H          1.3002586956       -3.1163974240        0.1994884610
