  72
        -99.26968528
 N         -1.7679326181        2.7023749424        2.5035850722
 C         -1.7475521619        2.0919501369        1.4142699017
 C         -2.9060584420        2.0153924493        0.4581445187
 C         -3.4475803090        0.5937602518        0.4286207432
 C         -4.4197758364        0.2461237807       -0.5115897226
 C         -4.9612699033       -1.0273598207       -0.5573609634
 O         -5.9136765172       -1.4372740900       -1.4201314379
 C         -6.5057222361       -0.4993087554       -2.2877955778
 C         -4.5070647731       -2.0142826603        0.3592939078
 O         -5.0804064839       -3.2274341485        0.2353333263
 C         -4.7370921231       -4.2457042156        1.1460747030
 C         -3.5409112040       -1.6632777779        1.2885840348
 C         -3.0223099669       -0.3746467923        1.3245810923
 C         -2.3408876753        2.3930350883       -0.9367355854
 C         -1.4714742080        1.3033846969       -1.5901320727
 C         -0.1274193086        1.1801018753       -0.9849311982
 N          0.4922722320        0.0386681771       -0.7037425019
 C          1.8793603292        0.0382383807       -0.3022227422
 C          2.8154602005       -0.3340189342       -1.4687608498
 C          4.2493012288       -0.2416423704       -1.0263948854
 C          4.9461954250        0.9558805164       -1.1344213891
 C          6.2546596844        1.0688852791       -0.6915236687
 C          6.9070088068       -0.0185866134       -0.1262313064
 O          8.1672745973       -0.0331749104        0.3362526384
 C          8.9462953913        1.1412073951        0.2585109888
 C          6.2035885234       -1.2501745185       -0.0242710934
 O          6.9073743518       -2.2627057662        0.5343821753
 C          6.5349492699       -3.5109944837        0.5970512635
 C          4.8843514530       -1.3397690130       -0.4651646920
 C         -0.1583074776       -1.2413230855       -0.8524396974
 C         -4.0738983951        2.9767053853        0.8317604584
 C         -4.7332901281        2.5728848448        2.1482584910
 C         -3.6498677318        4.4414230839        0.8952583965
 H         -4.7693950719        0.9894422186       -1.2083734845
 H         -6.9639623324        0.3253406621       -1.7335145715
 H         -7.2787757032       -1.0454512578       -2.8245789260
 H         -5.7815113976       -0.1014141725       -3.0061587830
 H         -4.9656743647       -3.9565486992        2.1760709092
 H         -5.3470567130       -5.1030052601        0.8683108148
 H         -3.6786718799       -4.5142080790        1.0678817358
 H         -3.1912724864       -2.3853821712        2.0085515061
 H         -2.2971926981       -0.1318950608        2.0859111088
 H         -3.1747082582        2.6053923683       -1.6046033860
 H         -1.7540011081        3.3074014283       -0.8426156576
 H         -2.0060800325        0.3550909212       -1.5836363852
 H         -1.3326099821        1.5990882023       -2.6384758927
 H         -0.8546330864        1.5716674990        1.0167940450
 H          0.4568213483        2.0829978003       -0.8836535221
 H          2.0159382165       -0.6749156515        0.5151418264
 H          2.1491327391        1.0314162956        0.0631807758
 H          2.6372385683        0.3557732761       -2.2951082940
 H          2.5922849111       -1.3456856030       -1.8089943055
 H          4.4686206640        1.8162973157       -1.5771610482
 H          6.7622083127        2.0136974421       -0.7947062949
 H          8.4987285248        1.9567417865        0.8333586407
 H          9.0899163614        1.4568038344       -0.7785627963
 H          9.9089403544        0.8791395920        0.6929930179
 H          7.2187278535       -4.1639197910        1.1053654529
 H          5.2033302193       -5.7433523197        2.2484352485
 H          5.6141797000       -3.8844300040        0.1830135319
 H          4.3478451064       -2.2705193732       -0.3657449579
 H         -0.3441777125       -1.4710942902       -1.9040294695
 H         -1.1115600804       -1.2487072032       -0.3180101480
 H          0.4771663544       -2.0182896499       -0.4349715960
 H         -4.8226988422        2.8778898652        0.0377167269
 H         -4.0278025698        2.6783518533        2.9659142023
 H         -5.0830485644        1.5439468243        2.1139269658
 H         -5.5864153057        3.2181869538        2.3405155565
 H         -2.8881291151        4.5818794832        1.6558940604
 H         -3.2739277469        4.7976925089       -0.0602515823
 H         -4.5104902985        5.0495461495        1.1613511873
 H         -0.9197546243        2.7089061242        3.0614020945
