  25
        -42.00355805
 C          2.1651119370        1.6943907780        0.0194555554
 N          2.0910483106        0.2932123475        0.0323973239
 C          5.1745487114       -1.3211600774       -0.1716360348
 N          0.8641325360       -2.3805202297        0.0756585907
 C          0.1793687004       -1.3236271790        0.0407639515
 C          0.8325519994       -0.0284180049        0.0272071923
 C          0.0331884330        1.1610987787        0.0095798808
 O          0.8121246825        2.2166498158        0.0047806584
 N         -1.2832878780        1.1508210858       -0.0018684455
 C         -2.0879403260        2.3575313295       -0.0123817556
 C         -1.9820744206       -0.0934481211       -0.0077247489
 O         -3.1798229994       -0.0846443440       -0.0295380409
 N         -1.2205029906       -1.2401156992        0.0123834589
 C         -1.9593367266       -2.4973740624        0.0101889465
 H          2.6875853429        2.0793628614        0.9056887305
 H          6.2289443884       -1.1865229520       -0.2943704203
 H          2.6982980258        2.0633640174       -0.8673609923
 H          4.5657797903       -2.1940568614       -0.0633392866
 H         -1.4311523767        3.2226417197        0.0058167790
 H         -2.7111275499        2.3713252991       -0.9070460801
 H         -2.7466921041        2.3606813272        0.8565240821
 H         -1.7375752398       -3.0653347304        0.9146395436
 H         -1.6985155085       -3.0836836517       -0.8716757780
 H         -3.0233056227       -2.2718484183       -0.0151854557
 H          0.4109786848       -3.2833734273        0.0890596520
