25
 energy: 0.000000000000 xtb: 6.6.1 (8d0f1dd)
C            3.23720163006194        1.16630919979326        0.08434469647475
N            2.29877817382611        0.07527477071623        0.03981603040599
C            2.58028210190900       -1.21425402444508        0.03006176031096
N            1.43813958087363       -1.93419271955128        0.00098261760884
C            0.39035688448383       -1.05887472636071       -0.00790371836672
C            0.93510056364412        0.21347819449412        0.01709077491437
C            0.09450143893243        1.40504303904423       -0.00410947031874
O            0.49712751527797        2.54126714362870       -0.00342325688240
N           -1.25076640035757        1.06271879480407       -0.03085478223738
C           -2.21907211982101        2.15522099834493       -0.05001256985998
C           -1.81739487048744       -0.20012725993278       -0.04692818574614
O           -2.99983886758376       -0.37846417018721       -0.07008878229737
N           -0.92618586207120       -1.30210215599479       -0.03682761578324
C           -1.46982264913417       -2.64643102187190       -0.06029820460571
H            3.71247264356769        1.21471455160235        1.06488849150277
H            4.00791497605742        1.03430808813993       -0.67357694370751
H            2.69910007168542        2.09770118228144       -0.09130154882931
H            3.56654120610678       -1.63682992603973        0.04233140067262
H           -1.67107961066214        3.09322851271934       -0.02552706933167
H           -2.82428953597071        2.09428624779827       -0.95318082946668
H           -2.87644029173232        2.07745725625962        0.81450067533302
H           -1.17061996399332       -3.19584890659852        0.83242232437030
H           -1.14560257411436       -3.17511610292205       -0.95688275822323
H           -2.55549792440841       -2.55659984320617       -0.07459039797972
H            1.38130855184625       -2.94313852034425       -0.01389874181052
25
 energy: -0.351156001790 xtb: 6.6.1 (8d0f1dd)
C            3.23039131989087        1.17454813572809        0.08580568257102
N            2.29078974748976        0.09485473290894        0.03795515309392
C            2.59844440523435       -1.22673878484624        0.03116423305063
N            1.46989222013981       -1.98627999565826        0.00124433296590
C            0.40231471882861       -1.09281614127513       -0.00840609183809
C            0.91496399886443        0.20693136707340        0.01525063222948
C            0.09100657416139        1.39498215412417       -0.00480106650424
O            0.49078823919717        2.56061138605628       -0.00329110194092
N           -1.27152150056364        1.06332014649277       -0.03126386312557
C           -2.23076654798740        2.16686162919551       -0.05012882031685
C           -1.82843502788164       -0.19042502192225       -0.04773918243547
O           -3.02652190250879       -0.36570575314317       -0.07135943923751
N           -0.93950683080491       -1.30273718796607       -0.03729802003595
C           -1.49557942514151       -2.63146454063734       -0.06024736859907
H            3.71267153353681        1.21234458450071        1.06631317558103
H            3.99764105697489        1.03007451192003       -0.67678308050614
H            2.69859854582982        2.10737479252824       -0.08855445742227
H            3.57471370431020       -1.63958906625326        0.04439271991858
H           -1.67448444776211        3.10228577135802       -0.02574822538201
H           -2.83965034931595        2.11870532724927       -0.95301640354382
H           -2.89191962041872        2.10220464171317        0.81397971652150
H           -1.18923231263938       -3.17787277627336        0.83238884745808
H           -1.16520287082546       -3.15740540674321       -0.95668286172971
H           -2.58050664038018       -2.53159946099982       -0.07388069943807
H            1.57332607970780       -3.04343644295847       -0.01225991518721
25
 energy: 17.785537135757 xtb: 6.6.1 (8d0f1dd)
C            3.22173484926832        1.17671003983252        0.08688762704316
N            2.27381611601097        0.11352623236034        0.03423757104726
C            2.60510019731369       -1.23266763656738        0.03335800955887
N            1.49915722171883       -2.04786232356358        0.00196048427883
C            0.40994242009432       -1.13876815526382       -0.00915385213021
C            0.88379012210920        0.19065004940131        0.01260097634845
C            0.08669964283108        1.37283692516767       -0.00539799172922
O            0.47926009907676        2.55797665560846       -0.00274009125591
N           -1.30215806694233        1.07190746080499       -0.03177563154206
C           -2.24680805221001        2.18812129607409       -0.05036605523551
C           -1.83973057538879       -0.17021456353448       -0.04860431135670
O           -3.04610336962894       -0.34745554092207       -0.07305586147054
N           -0.96046271345702       -1.29394422105352       -0.03775194413547
C           -1.53106441852444       -2.60834447807851       -0.06016746700332
H            3.71262282852901        1.20594831492782        1.06607419214237
H            3.98560082655562        1.02336284882665       -0.68056627729009
H            2.70231924724572        2.11629350733191       -0.08374471742308
H            3.57438822919389       -1.63604378650749        0.04718751953630
H           -1.67936995000294        3.11879465998303       -0.02603437079834
H           -2.85905523961742        2.15103112122553       -0.95289732888901
H           -2.91141034325607        2.13497563703722        0.81326705323295
H           -1.21712933635356       -3.15566160217963        0.83020270229123
H           -1.19468653762144       -3.13555527721109       -0.95455686458354
H           -2.61481252282104       -2.50365362235393       -0.07294593906707
H            1.88057399381280       -3.16293493917399       -0.00898353542206
25
 energy: 37.127803762678 xtb: 6.6.1 (8d0f1dd)
C            3.21476652000230        1.17495795460364        0.08685226670159
N            2.26605054695650        0.11339237531097        0.03186959991604
C            2.60642133933427       -1.23357498129288        0.03510196301821
N            1.52441300313342       -2.08431858412277        0.00260160095557
C            0.41732856909687       -1.16922999453296       -0.00995873528640
C            0.87151100608146        0.17312639856943        0.01132066741626
C            0.08288419391610        1.35848793892265       -0.00536505294657
O            0.47278290540655        2.54341186268297       -0.00199750636515
N           -1.32043006141444        1.08304362267661       -0.03221236488847
C           -2.25924427352029        2.20472756271305       -0.05075588745131
C           -1.84572207821721       -0.15957069643281       -0.04940713353225
O           -3.05139849345798       -0.34434836265882       -0.07459989492332
N           -0.96717144749691       -1.28673769182729       -0.03802806771676
C           -1.55816939904432       -2.59253378322377       -0.06001113618593
H            3.70883572747024        1.20049776733080        1.06456802925059
H            3.97508561291692        1.02168414226455       -0.68377502022650
H            2.70317806722782        2.12131027977087       -0.07899196648109
H            3.58144644561707       -1.62686939650017        0.04935965253075
H           -1.68858412746517        3.13324661610039       -0.02645276732142
H           -2.87467276411157        2.17458542894401       -0.95202897299814
H           -2.92697674211852        2.15884953942829        0.81156754969888
H           -1.24594180932398       -3.14119547138661        0.82984575252210
H           -1.22514366714333       -3.12144305025774       -0.95439912509474
H           -2.64150307121707       -2.47930402545604       -0.07180159960241
H            2.09246866530748       -3.23316684945434       -0.00626795484225
25
 energy: 47.144839946649 xtb: 6.6.1 (8d0f1dd)
C            3.20896804915749        1.16723593380340        0.08623481859057
N            2.25340774305677        0.10823580426029        0.03056397147076
C            2.58560617420419       -1.23139988946231        0.03755143545230
N            1.53250470505545       -2.11125019674730        0.00526009175038
C            0.41253750554098       -1.18420835782707       -0.01074219360962
C            0.85847406173451        0.16393215871573        0.01098650615376
C            0.07762640096977        1.35609801874855       -0.00478553017892
O            0.46726095472136        2.53492136369381       -0.00145783968269
N           -1.33574901443748        1.10099662394014       -0.03241410456520
C           -2.26959916455683        2.22220819595769       -0.05111759905009
C           -1.85616144273729       -0.14488047305340       -0.05008763775638
O           -3.05872387859964       -0.33653178879258       -0.07569914170194
N           -0.97809167901735       -1.27143996281518       -0.03845271617609
C           -1.57742152243838       -2.57770997519175       -0.05987979807983
H            3.70364342061965        1.19092755392836        1.06282349418701
H            3.96655339477329        1.01452538260409       -0.68618553600931
H            2.70601521674033        2.12053055153915       -0.07648491166232
H            3.56866654192341       -1.61592095074161        0.04983217577848
H           -1.69696589345540        3.14874968172170       -0.02682449762926
H           -2.88498908601280        2.19160769990234       -0.95243432330470
H           -2.93721427666307        2.17619828457027        0.81134947067467
H           -1.26360364343548       -3.12696427582416        0.82879299226453
H           -1.24423383127554       -3.10757933026648       -0.95338988797325
H           -2.66025638790680       -2.46690785384089       -0.07099276123149
H            2.33396031997509       -3.33234559665077       -0.00541258156410
25
 energy: 39.818325422411 xtb: 6.6.1 (8d0f1dd)
C            3.20397218591705        1.15428107958130        0.08579093126448
N            2.22965815851922        0.10242160520920        0.03098180941725
C            2.52780619942379       -1.22898699751858        0.03761407171270
N            1.50660539034281       -2.12419126491016        0.00745291912333
C            0.39058167704334       -1.17478826660926       -0.01061795928414
C            0.83990993677227        0.17075217098992        0.01085945931120
C            0.07171585652784        1.36808691934321       -0.00474369702029
O            0.45662439167444        2.53812205589779       -0.00138034886351
N           -1.34626020597955        1.12294587866495       -0.03258955496431
C           -2.27600541321728        2.23892242575726       -0.05134733191921
C           -1.86731868899293       -0.12781659633054       -0.05034552675621
O           -3.06758667762174       -0.32133783907017       -0.07622716968648
N           -0.99706495279343       -1.24602354318954       -0.03829172166194
C           -1.58973594076961       -2.56154342408379       -0.05964156947659
H            3.69942020125378        1.17911676716018        1.06067623983826
H            3.96018412160173        1.00225756977218       -0.68681485066369
H            2.71370279858088        2.11745988192760       -0.07556806714289
H            3.52120245842060       -1.61592842652890        0.04903352298411
H           -1.70120241242826        3.16283601376988       -0.02707083382085
H           -2.88995492112836        2.20405549797365       -0.95296679291618
H           -2.94210069907910        2.18887243399723        0.81155128502147
H           -1.26925695117457       -3.11214628333079        0.82590185336750
H           -1.25054469260050       -3.09291755292688       -0.95010112972256
H           -2.67243036778238       -2.46219220198619       -0.07066643885059
H            2.66029321542616       -3.49322930138753       -0.00445520314363
25
 energy: 27.465632058078 xtb: 6.6.1 (8d0f1dd)
C            3.20409884200489        1.14001114933982        0.08514730806458
N            2.21364156126164        0.08041435900274        0.03624383635029
C            2.43076392338188       -1.23307372450638        0.03222264846313
N            1.40758880374680       -2.05803625796055        0.00544181983649
C            0.34719977095216       -1.09746836056891       -0.00814110153349
C            0.84257628621954        0.20649629485075        0.01162199176923
C            0.06233448033976        1.40807017499994       -0.00589156498617
O            0.44520984782864        2.55009477960799       -0.00130813476943
N           -1.32669958010845        1.13500580904628       -0.03258101448312
C           -2.26852282681601        2.23904083834909       -0.05124116688705
C           -1.86950372223811       -0.13231842642646       -0.04994834187703
O           -3.06698465093610       -0.30885163714082       -0.07587534414924
N           -1.00638304188440       -1.22245002954370       -0.03683416257607
C           -1.58163715307205       -2.55755537054850       -0.05934772581561
H            3.69655898231723        1.17141306345591        1.05859527643819
H            3.96008278244625        0.99316646625874       -0.68517112943999
H            2.71786699307729        2.10816334030597       -0.07777207152123
H            3.44541997679174       -1.63682441185812        0.04832074128604
H           -1.70230439252260        3.16656651654473       -0.02712052461969
H           -2.88335047087010        2.19991793883069       -0.95174153807537
H           -2.93537476101303        2.18459440255493        0.81052315598231
H           -1.25844233813531       -3.10744931581358        0.82382030763867
H           -1.23914103146309       -3.08787789516229       -0.94747006792250
H           -2.66587681797726       -2.46602432340082       -0.07086393437953
H            2.94309320460489       -3.68599677804541       -0.00359536664614
25
 energy: 22.559656464418 xtb: 6.6.1 (8d0f1dd)
C            3.20592391344290        1.13752809928387        0.08390746312500
N            2.21760892443333        0.07155030182707        0.03917302181066
C            2.38952890397563       -1.24330097875816        0.03115565212456
N            1.31725245178509       -1.99594322486295        0.00364573404963
C            0.31675244659868       -1.03565439823856       -0.00754953522771
C            0.85160127989105        0.23997255909190        0.01276965714415
C            0.05004269347030        1.44076630657394       -0.00506481487919
O            0.44171266107108        2.57753819546936       -0.00058404732870
N           -1.31365030961978        1.13859131292742       -0.03219213629591
C           -2.26639749086426        2.23828234836421       -0.05114106101898
C           -1.87693346876477       -0.13669743003349       -0.04972360959564
O           -3.07581609897889       -0.28582846704379       -0.07555268978146
N           -1.01878501844234       -1.21293942186601       -0.03705596201720
C           -1.57353821967426       -2.55835568604808       -0.05956430623171
H            3.69391064985440        1.16662147435440        1.05886446955304
H            3.96151919346204        0.98628592219500       -0.68505655424250
H            2.71391880967700        2.10015632799699       -0.08170551407771
H            3.40489926905846       -1.65755699757188        0.04789336096972
H           -1.70778046272568        3.17118866423662       -0.02685540562304
H           -2.88018206870136        2.19422756204053       -0.95200673828296
H           -2.93216695302271        2.17839736361194        0.81096059215606
H           -1.24382976367960       -3.10185572333132        0.82400732084275
H           -1.22405002572841       -3.08191542970396       -0.94774492417795
H           -2.65814965303103       -2.47359395233851       -0.07134025894220
H            3.11882300444940       -3.86843612600451       -0.00220581790540
25
 energy: 21.004721413803 xtb: 6.6.1 (8d0f1dd)
C            3.20628095203045        1.13934500190656        0.08374085356272
N            2.22166643282942        0.07468762483670        0.03998485559458
C            2.37832653436838       -1.25501871753044        0.03078381656400
N            1.25203782523240       -1.95436689831606        0.00218091467087
C            0.30174348947498       -0.99306857563611       -0.00718977881953
C            0.85745039075703        0.27287110107472        0.01397788052770
C            0.03746001003121        1.46608988540091       -0.00475258150079
O            0.43722869832174        2.60921062497727       -0.00089241449721
N           -1.31101063207173        1.14410517960281       -0.03212683233453
C           -2.27066625754606        2.24174473219101       -0.05117674314799
C           -1.88752014638902       -0.13367757793191       -0.04958432793138
O           -3.08879210324453       -0.26211302655120       -0.07511988852003
N           -1.03173576550823       -1.20577846803638       -0.03737887994381
C           -1.56622513593785       -2.55549309127733       -0.05949525462213
H            3.69377406972247        1.16610417660280        1.05952440061655
H            3.96326816529782        0.98339132821579       -0.68379450784200
H            2.71250950961673        2.09796740964623       -0.08352978390488
H            3.37807639650772       -1.67854067731836        0.04604656406361
H           -1.71428458741429        3.17652689885880       -0.02692895360781
H           -2.88154015177012        2.19104654371577       -0.95298604775201
H           -2.93351283094737        2.17513119035459        0.81198631483395
H           -1.23098844619702       -3.09566826745561        0.82396852278329
H           -1.21069548958184       -3.07563594650223       -0.94717098181744
H           -2.65098534933067       -2.47892709414372       -0.07163236209338
H            3.25034908968466       -4.06090475451253       -0.00140088873501
25
 energy: 20.896853728807 xtb: 6.6.1 (8d0f1dd)
C            3.20419870053856        1.14128844604253        0.08368849421380
N            2.21836349596122        0.08326437004184        0.03949685701650
C            2.38292842320829       -1.25592616610756        0.03069916170131
N            1.23508712517696       -1.93613962650321        0.00165626280314
C            0.30074559935669       -0.97619569187436       -0.00697324793051
C            0.85801718261791        0.29176377995378        0.01517490580182
C            0.03182213870245        1.47698496910333       -0.00438235750976
O            0.43358817147229        2.62555097591315       -0.00141900438524
N           -1.31299624022897        1.14776027920836       -0.03199897395163
C           -2.27405749161589        2.24523958005565       -0.05115189268009
C           -1.89289432799415       -0.12862711164474       -0.04945026343939
O           -3.09507832581631       -0.25227664790886       -0.07484093070644
N           -1.03683546357485       -1.20191588818733       -0.03756456204862
C           -1.56113423390582       -2.55120891900272       -0.05955016522383
H            3.69370431885718        1.16727746309353        1.05955777629319
H            3.96336114235324        0.98281462835160       -0.68276171134232
H            2.71266678257116        2.09982382422984       -0.08442931440039
H            3.36895841532432       -1.68236256919125        0.04550713281798
H           -1.71634012008596        3.17902538477775       -0.02684193415064
H           -2.88301664766054        2.19165306654581       -0.95343927838594
H           -2.93511648343671        2.17563663056592        0.81245917853363
H           -1.22464887298266       -3.09186844786490        0.82379234740353
H           -1.20399468590998       -3.07180576845595       -0.94696792843149
H           -2.64650141460818       -2.48034847407132       -0.07193383034574
H            3.29138747961599       -4.19037948489884       -0.00129282550556
25
 energy: 20.765093066698 xtb: 6.6.1 (8d0f1dd)
C            3.20400251264688        1.14609057108227        0.08404296301825
N            2.21330066731672        0.09794107082742        0.03900845862718
C            2.39528983734137       -1.24594498067888        0.03060724314024
N            1.24223106390682       -1.92096863553404        0.00146853194473
C            0.30473797192453       -0.96912605945222       -0.00678931042870
C            0.85711223299552        0.30444244330318        0.01624227596044
C            0.03004440862303        1.48159052950556       -0.00443979915090
O            0.43040794037115        2.63457461988518       -0.00195659934634
N           -1.31568507409785        1.14914863212275       -0.03207054047062
C           -2.27616322401771        2.24698063736973       -0.05119042128839
C           -1.89442531750459       -0.12405356570468       -0.04945323336564
O           -3.09688223250993       -0.25112743957599       -0.07469996777695
N           -1.03731427864315       -1.20049823634230       -0.03763735976452
C           -1.55799388639542       -2.54749337929622       -0.05944477969120
H            3.69561364491009        1.17012414773630        1.05995098969164
H            3.96451410068058        0.98442073896514       -0.68194271583173
H            2.71679168144863        2.10637740843984       -0.08439873087480
H            3.37128397861978       -1.67554977090826        0.04502362257733
H           -1.71682976352237        3.17949468155283       -0.02690601070426
H           -2.88407340946766        2.19230772384709       -0.95364471296890
H           -2.93616158612085        2.17625731956119        0.81263247797882
H           -1.22307109417399       -3.09058263103801        0.82384674015866
H           -1.20229667481564       -3.07064796333999       -0.94677548782447
H           -2.64423631402947       -2.47988640435313       -0.07192572074344
H            3.27201748244976       -4.30484285580272       -0.00251401671913
25
 energy: 20.345330827736 xtb: 6.6.1 (8d0f1dd)
C            3.20629577190425        1.15445821460667        0.08428960786477
N            2.20944690168962        0.11773970331386        0.03854760760806
C            2.41215469119236       -1.22534913283621        0.03116121357560
N            1.27142970420210       -1.90764413220264        0.00205594604032
C            0.31235852710456       -0.97159958424573       -0.00658871688620
C            0.85486323366424        0.30990348344472        0.01691504963282
C            0.03180367953516        1.48148430677006       -0.00432606206687
O            0.42722962788831        2.63754130517944       -0.00204991474808
N           -1.31917763401006        1.14991948841261       -0.03203355789027
C           -2.27784470882645        2.24794825550744       -0.05120412097787
C           -1.89183496148443       -0.11927617922580       -0.04941452670183
O           -3.09438799858426       -0.25649133913754       -0.07476757420267
N           -1.03293556077253       -1.20034613095545       -0.03754961908060
C           -1.55553694578268       -2.54473541823995       -0.05946508355560
H            3.69797397858613        1.17459819531778        1.06060487305725
H            3.96568971060569        0.98770098013975       -0.68231192977064
H            2.72283052456447        2.11641235620752       -0.08438804463246
H            3.38213749797825       -1.66325949989297        0.04543498038184
H           -1.71751740398666        3.17972066029628       -0.02687574433274
H           -2.88558926225076        2.19366357048168       -0.95372307210323
H           -2.93777603568295        2.17757284174655        0.81260884309617
H           -1.22253823753596       -3.09039783278808        0.82384737298792
H           -1.20175020423859       -3.07036098611893       -0.94697294493438
H           -2.64261135139921       -2.47867278545779       -0.07198335420390
H            3.19750112357559       -4.41150173815121       -0.00477733201011
25
 energy: 20.013105834421 xtb: 6.6.1 (8d0f1dd)
C            3.20955513409931        1.16150131484250        0.08474800707554
N            2.21155956073294        0.12747198564480        0.03852113618317
C            2.41909378590572       -1.20999208074328        0.03143523957784
N            1.29571496048435       -1.90319645619933        0.00279512411086
C            0.31687495457221       -0.97871082180978       -0.00664956261705
C            0.85357121823261        0.30572405833197        0.01634678752807
C            0.03491583019988        1.47873483249672       -0.00456625790669
O            0.42596744493431        2.63421672973827       -0.00214611634822
N           -1.32039158255024        1.14965469831526       -0.03214891056646
C           -2.27772030254497        2.24709888850843       -0.05126496569738
C           -1.88754645353848       -0.11854207848958       -0.04943604790347
O           -3.08999513125256       -0.26326329390024       -0.07479577306414
N           -1.02731329271328       -1.20100889497138       -0.03737951010173
C           -1.55574916903090       -2.54511739054259       -0.05931108419669
H            3.69957804559618        1.17834056457918        1.06127146372299
H            3.96650686735742        0.99168422051029       -0.68258529695196
H            2.72645176824063        2.12364694180358       -0.08363068347775
H            3.39012000328949       -1.65567315823328        0.04539725214197
H           -1.71715556152760        3.17888920855548       -0.02698541569662
H           -2.88602919769353        2.19383826047469       -0.95377306974251
H           -2.93811108121707        2.17782724327983        0.81261299994190
H           -1.22405089150041       -3.09128463671995        0.82408527997723
H           -1.20343968833987       -3.07136410222472       -0.94695339949351
H           -2.64266480971699       -2.47673012645503       -0.07173182530913
H            3.13247225591708       -4.44471730461979       -0.00682147503896
25
 energy: 19.917082371134 xtb: 6.6.1 (8d0f1dd)
C            3.21078351575802        1.16361261736585        0.08453344433330
N            2.21461326863955        0.12768247655071        0.03862974572260
C            2.41853232563418       -1.20554126193342        0.03204089591275
N            1.30347916715221       -1.90460159977898        0.00348953271364
C            0.31751601008142       -0.98266107830333       -0.00663182719170
C            0.85294767975113        0.30114818331458        0.01585170586582
C            0.03648000377502        1.47730410346928       -0.00436218842256
O            0.42625700052463        2.63140326298034       -0.00174200123596
N           -1.32044116561301        1.14986603735434       -0.03202979432317
C           -2.27745034783787        2.24676705513920       -0.05121004896379
C           -1.88582319807758       -0.11916465544414       -0.04938027044303
O           -3.08818018468897       -0.26513599845033       -0.07491159767544
N           -1.02500594521664       -1.20086681216255       -0.03726812781159
C           -1.55631596765051       -2.54611605190693       -0.05944897452882
H            3.69960497134664        1.17922347543070        1.06110233176312
H            3.96638536216424        0.99251926678629       -0.68311026041645
H            2.72621719533071        2.12474603060783       -0.08397079767312
H            3.39164782795465       -1.65371192702395        0.04602643831176
H           -1.71739035905641        3.17901314567061       -0.02687817320888
H           -2.88609304034714        2.19402225811596       -0.95372493308164
H           -2.93829919627316        2.17800919620106        0.81257294968575
H           -1.22415936691295       -3.09145997429696        0.82389283692667
H           -1.20353358224795       -3.07132287770254       -0.94714109324089
H           -2.64286367233126       -2.47654134676550       -0.07187124090897
H            3.11330636607727       -4.43916492304608       -0.00742465596211
25
 energy: 19.902857527587 xtb: 6.6.1 (8d0f1dd)
C            3.21103433110628        1.16396695719372        0.08476189169614
N            2.21602336403966        0.12664020969176        0.03862411763263
C            2.41734353451420       -1.20504693435988        0.03188801975999
N            1.30374980947714       -1.90537431999956        0.00359180586551
C            0.31707218079395       -0.98308289362166       -0.00673531669085
C            0.85265976778956        0.29988760009954        0.01543289891292
C            0.03676316766292        1.47720841607962       -0.00459896530336
O            0.42643493665527        2.63077674854556       -0.00190426409671
N           -1.32025352303827        1.14987002075245       -0.03214904154453
C           -2.27721394500853        2.24650086363316       -0.05126106703609
C           -1.88570306034258       -0.11984552605770       -0.04940396893076
O           -3.08798902404843       -0.26511127311867       -0.07483250802412
N           -1.02476536305133       -1.20060008934890       -0.03721681248637
C           -1.55676511048192       -2.54660540618114       -0.05928669618969
H            3.69964360193504        1.17922185460083        1.06130348232889
H            3.96656051117964        0.99300170498037       -0.68280379610401
H            2.72589052989775        2.12467232451127       -0.08354665103046
H            3.39127813678959       -1.65355163411983        0.04568630278202
H           -1.71716591746358        3.17880611773494       -0.02699564120966
H           -2.88596321588148        2.19379654248362       -0.95374805799362
H           -2.93803172057757        2.17784094671267        0.81259773836086
H           -1.22443202850406       -3.09143357085156        0.82408277464056
H           -1.20390851379158       -3.07145495172247       -0.94693680713062
H           -2.64308338791307       -2.47638129790234       -0.07165134695815
H            3.11303560619760       -4.43467380756378       -0.00786419510322
25
 energy: 19.900128908350 xtb: 6.6.1 (8d0f1dd)
C            3.21098408917787        1.16385893467345        0.08438832778667
N            2.21658555695177        0.12597983944005        0.03862503703142
C            2.41670566076590       -1.20515890286930        0.03233679961212
N            1.30319600468865       -1.90575937536042        0.00403442632386
C            0.31677321561285       -0.98275549223512       -0.00658866755664
C            0.85235294161441        0.29980618263156        0.01549349947425
C            0.03679086815155        1.47747301618037       -0.00430494826839
O            0.42653219077469        2.63092670542051       -0.00155737380953
N           -1.32024966823091        1.15007640161019       -0.03199107067984
C           -2.27727511765989        2.24657916150728       -0.05117594820195
C           -1.88589486544408       -0.12010878879035       -0.04935231869097
O           -3.08815034591683       -0.26457832668965       -0.07495555837366
N           -1.02489615040849       -1.20025134439926       -0.03716384007561
C           -1.55669592722546       -2.54676646772634       -0.05950817552024
H            3.69965447896451        1.17932892528074        1.06089370958907
H            3.96654218821298        0.99270832518700       -0.68319636612739
H            2.72558364114187        2.12427905781199       -0.08415330120728
H            3.39071189731182       -1.65390480450928        0.04627883804016
H           -1.71743058164761        3.17901653973321       -0.02681889022565
H           -2.88597129042391        2.19392859240336       -0.95370278567638
H           -2.93822713759312        2.17790475939942        0.81257765492476
H           -1.22410101351197       -3.09139301342321        0.82379096498994
H           -1.20341496046495       -3.07113171130195       -0.94719440245587
H           -2.64294741966609       -2.47664265534391       -0.07196450786820
H            3.11505641276071       -4.43438695645832       -0.00775720688735
