25
 energy: 7.057328826965 xtb: 6.6.1 (8d0f1dd)
C            3.38434247877435        1.10820700201277        0.10476374014478
N            2.34881751034116        0.11375823948975       -0.00563839338694
C            2.60481867746673       -1.26308026325463       -0.00070789870485
N            1.39425279383215       -1.90876501762571       -0.06315166461790
C            0.39088853632472       -0.99965274354501       -0.03193742605042
C            0.91642591499901        0.28797603726803        0.02197976888600
C           -0.00876449312847        1.38581295033059        0.06456797587507
O            0.27108329739516        2.57807728563522        0.13428282625552
N           -1.50707223414677        1.07447229837357       -0.04288954776698
C           -2.42193781677355        2.23865997353438       -0.09629369305700
C           -2.00254659057005       -0.18814251889822       -0.00106303274980
O           -3.15760826421945       -0.51686242609237        0.01228553062258
N           -0.96481544527325       -1.22795586682014        0.01277031091712
C           -1.38031863398971       -2.62534515807563       -0.04441632727118
H            3.75389853285567        1.25177034367685        1.14401724699856
H            4.25285018695242        0.81338124576996       -0.50835465998688
H            3.02158664031349        2.05972482483759       -0.27540103526226
H            3.56584460668455       -1.74307100714099       -0.03875699541175
H           -1.81854668839301        3.14681485771648       -0.05190455433444
H           -3.01008289901039        2.29075898761886       -1.01384160352272
H           -3.11293552380933        2.25947778677138        0.74628902057252
H           -0.96001705415241       -3.20746544168084        0.78323394905923
H           -1.08579272826370       -3.09907081613516       -0.99035677179883
H           -2.46363726824468       -2.64199538189398        0.04896859176307
H            1.31965096950730       -2.91520923981535       -0.10486104743834
