25
 energy: -5.906211464282 xtb: 6.6.1 (8d0f1dd)
C            3.27939250625436        1.16122719278987        0.08947025946024
N            2.31359730373752        0.11043907794333        0.03075487763338
C            2.60243227171518       -1.24330017118210        0.02880366052079
N            1.40935571002805       -1.93208926365292       -0.01101809587855
C            0.39568734867740       -1.04294333334850       -0.01147793228222
C            0.91594743043971        0.24387389713493        0.01594477599839
C            0.07673709426479        1.38331278799739        0.01283741393428
O            0.43769113557737        2.56470779289184        0.02763573721063
N           -1.32636106905621        1.05156530632794       -0.03072085278127
C           -2.27223993272057        2.16470800795343       -0.05957221940064
C           -1.86419892568352       -0.19792076772491       -0.03183270619557
O           -3.05593786916281       -0.41025683745199       -0.05714261585008
N           -0.94917548972216       -1.28221450631512       -0.02514876610799
C           -1.44823727361046       -2.63845203497521       -0.05586943250046
H            3.73713701313827        1.22843753080668        1.08387591422608
H            4.07851288876137        0.98929199137385       -0.63887102854606
H            2.77709020014899        2.09573693766293       -0.13647194976002
H            3.57880921255686       -1.67074142281819        0.03433781408497
H           -1.70268239265512        3.09006068024257       -0.03391223021267
H           -2.87473565153369        2.14079648831736       -0.96655737720043
H           -2.93681059270539        2.12226810812471        0.80229011699147
H           -1.11656629208126       -3.20001736026759        0.82125874143412
H           -1.12629235848703       -3.15787478053898       -0.96322774373937
H           -2.53361833203367       -2.57242785604656       -0.04290799934438
H            1.34426871385340       -2.93718217962139       -0.02817587878170
