25
 energy: 44.722810982965 xtb: 6.6.1 (8d0f1dd)
C            3.49158461789764        1.04814096477411        0.10760929891415
N            2.42233524302132        0.09682442712581       -0.00273542333842
C            2.65870811688707       -1.25786118097803       -0.04400711376973
N            1.45858710651295       -1.91229283931210       -0.10309731405499
C            0.44009416275048       -1.01080667251443       -0.02483748040612
C            0.98469537686273        0.28979856711250        0.05070297258721
C            0.09875457685219        1.38158155823131        0.11892497273764
O            0.16903591478848        2.57025743780010        0.28396584933125
N           -1.72438918499783        1.10644208041264       -0.10929199483985
C           -2.57035675347263        2.32394503245347       -0.13838921159961
C           -2.17087098788555       -0.10887016043423        0.00565006347927
O           -3.21520503533266       -0.66245150651188        0.08405379647521
N           -0.89675344998416       -1.21989956788160        0.01337698417409
C           -1.30113166545068       -2.62002053542866       -0.03939275245834
H            3.74725201256728        1.29030152282985        1.14505047315912
H            4.40256479803382        0.62843554955681       -0.35730090964618
H            3.26381760958259        1.97229709019674       -0.40595418444609
H            3.59262745981889       -1.76311831990224       -0.14969515070772
H           -1.92575594814484        3.19102973154023       -0.05300458088783
H           -3.11914485646246        2.46746492388458       -1.06871663028117
H           -3.27668047056565        2.41335890704565        0.68612590274934
H           -0.80644771949243       -3.21563359339033        0.74137892989184
H           -1.05710719384246       -3.05364842353015       -1.02063029905435
H           -2.37647736430621       -2.69265701873926        0.13459879076662
H            1.41119463898600       -2.91774771707171       -0.13526676752185
