25
 energy: -42.144716512972 gnorm: 0.007633430881 xtb: 6.6.1 (8d0f1dd)
C            4.40736630016038        0.24988576656847        0.08122616532997
N            3.04255864070840       -0.09412526733335        0.04473479192261
C            2.56295460047613       -1.25698970701587       -0.00788891304441
N            1.22654542278436       -1.53630802148394       -0.07346442011545
C            0.17825938476293       -0.64114881214538       -0.03932298708837
C            0.32630577818384        0.67705488386270        0.24892982468950
C           -0.79108657934755        1.59026546069736        0.32617247106168
O           -0.69535032955600        2.77685212865906        0.52449434393202
N           -2.04881384541119        0.98582966720694        0.18138815995597
C           -3.23562109482028        1.81443516499435        0.34829786552902
C           -2.27762256061022       -0.31929639396272       -0.08824617674452
O           -3.35701536736272       -0.82524218998134       -0.17920026856888
N           -1.08602406253910       -1.15264331679171       -0.31653886792162
C           -1.33687309861144       -2.35915892320067       -0.79911932455622
H            4.59083627010790        0.85353060345962        0.97340839687354
H            5.07773568651550       -0.61936443442026        0.08649103248170
H            4.63073971451235        0.87411713281360       -0.78673112627174
H            3.18227514860020       -2.16186596028252       -0.02273060985835
H           -2.92383005651811        2.85654920638839        0.33450981293257
H           -3.93886888339418        1.60962478068682       -0.45748781176665
H           -3.71850695682996        1.58580751238148        1.29891939329570
H            1.29549333409226        1.09425929894066        0.45852783516408
H           -0.56915359004318       -3.04205604343812       -1.10654556599629
H           -2.37438791229811       -2.62249699739043       -0.93039644985411
H            0.99251557053603       -2.51927699761001       -0.06825595348233
