  25
        -42.16186953
 C          3.4758428684        0.9158991539        0.0258493091
 N          2.4163567357       -0.0553540922        0.0032016528
 C          2.5540531486       -1.3889380554        0.0010967114
 N          1.3196113230       -1.9690947894       -0.0036058469
 C          0.3857371607       -0.9785227354       -0.0030280119
 C          1.0721396193        0.2335846370        0.0014899281
 C          0.3886959221        1.5051680549       -0.0136220091
 O          0.8628465537        2.6165151810       -0.0297439141
 N         -1.0015376007        1.3016762836       -0.0117054659
 C         -3.8667874596        0.9938001300        0.0236022585
 C         -1.6828332271        0.1060969049       -0.0012836534
 O         -2.9696733088        0.0113287397        0.0176746871
 N         -0.9663817134       -1.0896189191       -0.0079116070
 C         -1.6193456008       -2.3820803217       -0.0061627627
 H          4.0001715971        0.8839078964        0.9821658562
 H          4.1893627396        0.7156863916       -0.7730369664
 H          3.0427690568        1.9062263683       -0.1079895308
 H          3.4818215062       -1.9196031001        0.0011042674
 H         -1.5598629046        2.1470521861       -0.0229551951
 H         -4.8814700583        0.6563653973        0.0523390397
 H         -3.6046196482        2.0327824771        0.0317328209
 H         -1.3477932175       -2.9407312596        0.8911200244
 H         -1.3333161444       -2.9486828636       -0.8938395385
 H         -2.6961069820       -2.2408589989       -0.0156915112
 H          1.1513473061       -2.9627761307       -0.0081047434
