25
 energy: -42.170331719796 gnorm: 0.004259856149 xtb: 6.6.1 (8d0f1dd)
C            4.02386125047931        0.75167736028174        0.32302558244038
N            2.71743485964779        0.21439397578440        0.23970431449823
C            2.46652343542413       -1.01759597190946        0.09282889933208
N            1.19319739483550       -1.50211816652078        0.00831341750718
C            0.05415304265944       -0.74841683110989        0.06110810412255
C           -0.11206025500949        0.60161375613181        0.24413584429563
C           -1.93846672522614        2.89739421834740       -0.90335378090392
O           -1.54146480064963        3.22639299294286       -1.94562885963408
N           -1.46611906113917        0.84892913826904        0.22072344405132
C           -2.15616152803882        2.12483064244098        0.28517047595859
C           -2.15506834126912       -0.33482554464731        0.00114923986416
O           -3.35238518877908       -0.45400694856501       -0.08463915552024
N           -1.18892092231801       -1.31882744376403       -0.08269182024404
C           -1.50700508287223       -2.70644023484565       -0.29359323773928
H            4.12161561959597        1.28340026813399        1.27182848862292
H            4.81261082892705       -0.00613403310356        0.24942838037633
H            4.15004058898663        1.48269285633526       -0.47849144153668
H            3.23630208778785       -1.79269716425096        0.01977262967976
H            0.62676829486654        1.35779179419429        0.40197159447020
H           -3.22948036515856        1.88413679524327        0.38185629487157
H           -1.84626208042154        2.69189645999802        1.17416344348038
H           -1.17125830345411       -3.31626401413541        0.54727667416047
H           -1.06390183932832       -3.07252641140797       -1.22158259315807
H           -2.59203736220040       -2.77805945306695       -0.36887529021514
H            1.07851596675163       -2.49899949917681       -0.11242903088301
