25
 energy: 45.871639240044 xtb: 6.6.1 (8d0f1dd)
C            2.98086756553018        1.99415515815969        0.32730389908198
N            2.37962458728313       -0.13927771323798       -0.18801922117503
C            2.63354230487819       -1.38151674832854        0.13205854986992
N            1.48495781266058       -2.15027300333481        0.20957800379736
C            0.44120041666403       -1.32057814454213       -0.04697574129177
C            1.02458654734272       -0.07715622462074       -0.26741383603478
C            0.26002181584394        1.08429101103603       -0.54631877137126
O            0.63904755953691        2.09974594293906       -1.08335809596158
N           -1.07392045992929        0.88858358211195       -0.11915212826683
C           -1.86651792215196        2.10322425352390        0.03802425164551
C           -1.71081812293298       -0.32099961100571       -0.04584341094669
O           -2.91487682215571       -0.37514821393379        0.09314112861973
N           -0.92332666347142       -1.49102655216092       -0.08693602629282
C           -1.73302468939262       -2.70162223272195       -0.10788192138909
H            3.82566874029219        2.02445802830955        0.96412778807601
H            3.25969353641425        2.25371456631354       -0.70414037857010
H            2.01475829749974        2.26758142276196        0.62782767463300
H            3.60016743818144       -1.83073898802378        0.29080712349172
H           -1.23176983382206        2.95685636876696       -0.05135790829281
H           -2.61807157166504        2.20758326773368       -0.70276572663693
H           -2.27896422723032        2.16141643110444        1.03939993680853
H           -1.61206221060766       -3.29445161434993        0.80431533020916
H           -1.55569191298322       -3.33376833363025       -0.97956060899375
H           -2.76727639260468       -2.31785486188818       -0.18722381698064
H            1.50897499500659       -3.15001325419324        0.30713403513355
