25
 energy: 35.612095739889 xtb: 6.6.1 (8d0f1dd)
C            3.33163258535824        3.21176463806195        0.35682267527879
N            2.36770780572308       -0.68841861231307       -0.19396935009922
C            2.42718428993999       -1.95990316911874       -0.01525626156778
N            1.17886067447500       -2.55002925241058        0.02765311381302
C            0.28860965544740       -1.53560771217116       -0.11650218421936
C            1.03757989779902       -0.38369051305035       -0.23968100004019
C            0.38549449796025        0.88476866851593       -0.33653257521214
O            0.89958350963221        1.95518947833650       -0.50137208230979
N           -0.98977518745556        0.81244395490309       -0.08787543890368
C           -1.64047993395788        2.09776764759572        0.14692608167646
C           -1.74996852184599       -0.32581787078918       -0.00871998922412
O           -2.95034331268608       -0.30385635001720        0.14156017559264
N           -1.06517162910574       -1.53543648022454       -0.11368965010303
C           -1.82859022593456       -2.75183337151658       -0.17417875246550
H            4.01233938989838        3.39538831553105        1.14339602919452
H            3.49608493569548        3.53347389121535       -0.64076499498311
H            2.38791651039640        2.77806524255137        0.56815631533571
H            3.33891112047310       -2.50335681391706        0.11374757266648
H           -0.92310058853970        2.90773547246725       -0.03266172995264
H           -2.48864567598676        2.20037149299235       -0.53120205204355
H           -2.00201328678813        2.09802777809371        1.17652467390384
H           -1.76043718981140       -3.25786613851536        0.78146792340349
H           -1.45890665664231       -3.36812548099748       -0.99388134600984
H           -2.86426681644369       -2.46450144161423       -0.33827613882355
H            0.97946579556753       -3.52705944179688        0.12516690299156
