25
 energy: 34.263956597307 xtb: 6.6.1 (8d0f1dd)
C            3.40216046132517        3.32833255594835        0.32515612272127
N            2.35615493130526       -0.74101574417904       -0.14915233311569
C            2.40298292967591       -2.01805090394947       -0.02557021375738
N            1.14852462093060       -2.59364295432359       -0.00048639798466
C            0.26827034273059       -1.56541265695055       -0.10370702864554
C            1.02998833431008       -0.41585287107848       -0.17960068737720
C            0.39460617908137        0.86446239334457       -0.23978099307917
O            0.92710465145224        1.93729005006054       -0.33142779309828
N           -0.99118352569823        0.79065879385633       -0.05254158153589
C           -1.65814596923823        2.07469297368971        0.13326245115065
C           -1.76263531636774       -0.34425061001318       -0.01524590201832
O           -2.96654649107163       -0.31057776412479        0.09866812649236
N           -1.08610889193713       -1.55898160071920       -0.10959941628145
C           -1.85568011299167       -2.77389679083661       -0.17292844350830
H            4.01135585131766        3.55122792234553        1.16215671658053
H            3.64175640671684        3.66047663682792       -0.65717268294882
H            2.46367812265433        2.85347375244056        0.46383763821317
H            3.31116353081032       -2.57321583328675        0.07292683984522
H           -0.92705610187333        2.88071114913506       -0.02874811410592
H           -2.47033739654451        2.16675702886159       -0.59018371621023
H           -2.07861639625167        2.08757868867871        1.13957036328959
H           -1.76052997778868       -3.30292996683826        0.77027460546666
H           -1.51260166106958       -3.37678700103246       -1.01515572197501
H           -2.89560590359569       -2.48364123275317       -0.30695019817668
H            0.94032042148877       -3.57128600984296        0.06710543416059
