25
 energy: 44.007807099075 xtb: 6.6.1 (8d0f1dd)
C            2.96225911955597        2.11259413925918        0.38518804302833
N            2.37024630612081       -0.18234515638754       -0.23795240142022
C            2.60678296247401       -1.41458515993260        0.10083664691533
N            1.45107119757286       -2.16656875902280        0.21831599103114
C            0.42182392717427       -1.33063950152532       -0.07284568351799
C            1.01868451412509       -0.10011098392675       -0.32753609187239
C            0.26362880982348        1.06802372530626       -0.63256691399445
O            0.63766483424650        2.05272714663662       -1.22519255060699
N           -1.05701034902739        0.88150349299635       -0.15006576930490
C           -1.83211638165893        2.09717728759150        0.05789566937887
C           -1.70815922905295       -0.31903409131687       -0.04113496113146
O           -2.90724496029748       -0.36280103431190        0.13630992089767
N           -0.93987101539290       -1.50327617009420       -0.10290830678812
C           -1.76799147792249       -2.70329962042114       -0.12066102638997
H            3.84853097869979        1.99249771909540        0.95021045215499
H            3.10991031481434        2.31176308642967       -0.66654894779632
H            2.00825889710717        2.27124691492123        0.77715527570145
H            3.57515218713987       -1.83393120031677        0.28947566516401
H           -1.18977713360100        2.94334465949583       -0.05397978701299
H           -2.62759445408909        2.21653728432133       -0.63457459772659
H           -2.20333038855811        2.14406363961777        1.08136462508413
H           -1.66888957920383       -3.29609917184806        0.79643780844191
H           -1.60547532311577       -3.34852257005300       -0.98588525293647
H           -2.79240500823687       -2.29611753359320       -0.21850379488410
H            1.44564567856363       -3.16073622478540        0.34845379606271
