25
 energy: 31.281045473177 xtb: 6.6.1 (8d0f1dd)
C            3.53904401078026        3.54516270355520        0.26393264915809
N            2.32863186235517       -0.83202218148509       -0.06061966963835
C            2.35472765632771       -2.11696488922873       -0.04916347744113
N            1.09153126375720       -2.66954415762865       -0.06273416116471
C            0.22812710347211       -1.62172604247499       -0.08964603709444
C            1.00944997053313       -0.47811589604050       -0.08228163530738
C            0.40868840924375        0.82749567301658       -0.06454577301438
O            0.97646850067140        1.89322962121115       -0.00166359420465
N           -0.99572115187271        0.75064942202476       -0.00501137062149
C           -1.70529158757823        2.02153476487919        0.09933481388294
C           -1.78450495827952       -0.37926171706361       -0.03333733947926
O           -2.99213214449274       -0.32334210883964        0.01346544270082
N           -1.12762139096752       -1.60609264068863       -0.10263500274174
C           -1.91007374078394       -2.81800369220668       -0.17158898220990
H            4.00261985342229        3.85102959579591        1.17510018006561
H            3.94315702271052        3.84453404271247       -0.67930728116390
H            2.61478645142228        3.01646007022766        0.27653646192308
H            3.25287534832492       -2.69639996968300       -0.01121217648934
H           -0.97020371701480        2.82816716993318        0.02383438918938
H           -2.43206278844195        2.10283672413430       -0.71040465608243
H           -2.23381195987627        2.05247651683677        1.05127334444319
H           -1.76827394807546       -3.40548991591874        0.73357109473618
H           -1.62335985897948       -3.39419709884479       -1.05358629814401
H           -2.95600874714584       -2.52259604737476       -0.24273131522287
H            0.86797154557302       -3.64756133149426       -0.05404183573801
