25
 energy: 37.182749679932 xtb: 6.6.1 (8d0f1dd)
C            3.18400362271202        2.97035718164573        0.41784754499095
N            2.38862361719624       -0.57859097527073       -0.27507376136765
C            2.47536867889969       -1.83560902065078        0.00378408169231
N            1.24167678002395       -2.45707782074108        0.07948786151163
C            0.32857105675953       -1.47773039863821       -0.14270641743420
C            1.04905919494997       -0.32181550524928       -0.36224179719711
C            0.35945589776319        0.92183201409722       -0.52923581518698
O            0.82877168714870        1.97939623677256       -0.83286716699188
N           -0.99427826070669        0.84427291313073       -0.16232552776401
C           -1.64786330429956        2.10300809860750        0.17131360203342
C           -1.72331725668555       -0.29936273615695        0.00385584346291
O           -2.91403239449887       -0.29276637325237        0.22148969832100
N           -1.02516482764026       -1.50137020822231       -0.10914891836259
C           -1.79168810429306       -2.71327906429400       -0.18128457002103
H            3.99288830132129        3.07335716128872        1.08652319190020
H            3.21703842473975        3.23710867628270       -0.60185359650414
H            2.24349269176037        2.63488373184676        0.77863347085251
H            3.39186378649935       -2.35666408911090        0.18921901578545
H           -0.94784819529601        2.89179453678491       -0.04787810323638
H           -2.54058970072351        2.25839559434351       -0.42195878001619
H           -1.86310790180468        2.10096469195995        1.23362599429455
H           -1.85155406995186       -3.22611089597517        0.77218492765405
H           -1.38305373430163       -3.34972911351077       -0.96249134927735
H           -2.81032356354672       -2.41590439880516       -0.41551409503449
H            1.06049073195395       -3.43096480808321        0.23467612173583
