25
 energy: -42.479544125295 xtb: 6.6.1 (8d0f1dd)
C            3.22177359642248        1.14222524305262        0.06831378655419
N            2.28051823207977        0.18173171632936       -0.05626373519584
C            2.54493179213221       -1.14798841053820       -0.04773448328437
N            1.37272782964698       -1.87361254196945        0.01939814506775
C            0.35101941935469       -1.00404785913675       -0.02667164968824
C            0.87587508221573        0.28871836346432       -0.06668513901679
C            0.00433486220423        1.42521803099004       -0.02532196443901
O            0.31367424332656        2.60058481414712        0.02391547300107
N           -1.36197641201578        1.04199209692601       -0.02930662616544
C           -2.34029477489143        2.11562927404475       -0.04243859004417
C           -1.89098695575182       -0.21881423564275       -0.04659511504818
O           -3.08199501855276       -0.42870632857358       -0.07008971752172
N           -0.98352241736974       -1.28000173745646       -0.02665846979118
C           -1.50145299845439       -2.63455406505729       -0.02710912285968
H            4.07036846250281        0.89449034859165        0.63885406960342
H            5.21132629728309        1.04219497037781       -0.44336014156733
H            2.90361938362832        2.15656695882111       -0.03621020743723
H            3.52093921486616       -1.55465292998213        0.09940960491923
H           -1.79374227227917        3.05489558594102       -0.01699508242018
H           -2.94614390112442        2.05277444819676       -0.94588657840041
H           -2.99866594417776        2.03063269518117        0.82151514167329
H           -1.20318115322105       -3.16316599562197        0.87875590950604
H           -1.15600471263897       -3.18334118776420       -0.90570552864074
H           -2.59161583822506       -2.57302343311967       -0.05315905287592
H            1.32641054877538       -2.87748206447861       -0.03345346806447
