  25
        -41.97713344
 C          3.7047022985        1.3262376143       -0.0012525076
 N          2.4247236815        0.7955298250        0.0001023520
 C          1.0481789348       -3.9789753001       -0.0031660362
 N          1.2154838260       -1.5379087230       -0.0013670603
 C          0.1423575712       -0.8574483841       -0.0003035162
 C          0.1075027217        0.5831639264        0.0002527270
 C          1.2808826845        1.4625408715       -0.0003176518
 O          1.1694953125        2.6945099924       -0.0011883733
 N         -1.1798839847        0.9777794283        0.0015048258
 C         -1.7063579709        2.3084883910        0.0018620016
 C         -2.0190084968       -0.1529862298        0.0015242977
 O         -3.2176989482       -0.1380556332        0.0023498418
 N         -1.1872503010       -1.2577089793        0.0004575573
 C         -1.6859868678       -2.6042139899       -0.0004826941
 H          4.2364910891        1.0006410968        0.9027783439
 H          4.2613351970        0.9271341526       -0.8590762222
 H          3.7091227342        2.4264950247       -0.0453740396
 H          2.0675053009       -4.3947257221       -0.0055869961
 H         -0.8799192214        3.0229513515        0.0062285724
 H         -2.3307078202        2.4597920403       -0.8831469863
 H         -2.3379916225        2.4561097504        0.8822324684
 H         -1.3416744601       -3.1459065907        0.8839252144
 H         -1.3461280630       -3.1429903186       -0.8884274086
 H         -2.7760081353       -2.5585800635        0.0022306029
 H          1.1646890013       -2.6262502855       -0.0014725284
