  72
        -99.36570061
 N         -2.2435883036        2.1391155575        2.8422242311
 C         -2.1034899266        2.5651982768        1.6726069849
 C         -3.0272510025        2.1557370110        0.5384906744
 C         -3.4969711474        0.7042129234        0.5641959344
 C         -4.3060335896        0.2806859563       -0.4944045211
 C         -4.7746689719       -1.0202591053       -0.5751533845
 O         -5.5760746908       -1.5027238362       -1.5454282003
 C         -6.1042359258       -0.6213522998       -2.5086844515
 C         -4.4028386554       -1.9595890764        0.4274977929
 O         -4.8879465587       -3.2039740262        0.2648811112
 C         -4.6131869007       -4.1824275710        1.2408648550
 C         -3.5963287518       -1.5304885566        1.4710773468
 C         -3.1547807785       -0.2167265515        1.5410357585
 C         -2.3198903472        2.3983137351       -0.7521985141
 C         -1.4006763703        1.4162517535       -1.3505278260
 C         -0.2934563971        0.9581123098       -0.3665942270
 N          0.5673436644       -0.0251166015       -0.9644798593
 C          1.9333957108       -0.0733008859       -0.4972967997
 C          2.9134113457       -0.3522395249       -1.6532646263
 C          4.3268404393       -0.2612050895       -1.1594334931
 C          5.0277304638        0.9355345614       -1.2292716381
 C          6.3186762553        1.0357661815       -0.7374444610
 C          6.9409334833       -0.0621240014       -0.1566267804
 O          8.1828122826       -0.0806661446        0.3564127392
 C          8.9673884568        1.0890868942        0.3113162906
 C          6.2322146763       -1.2959262608       -0.0808041757
 O          6.9097785394       -2.3093232237        0.4883007876
 C          6.3063175889       -3.5777746078        0.5865596866
 C          4.9398047685       -1.3688334976       -0.5798699094
 C         -0.0576731879       -1.3060841657       -1.1900475919
 C         -4.2813682807        3.0981127891        0.6677567971
 C         -5.1818000929        2.6408710538        1.8104145264
 C         -3.8946039724        4.5625685949        0.8687640741
 H         -4.5740758040        0.9889626718       -1.2624750984
 H         -6.6650401415        0.1929452134       -2.0403032904
 H         -6.7794634749       -1.2219746784       -3.1151162331
 H         -5.3193358235       -0.2049487458       -3.1481594336
 H         -4.9910212378       -3.8850904259        2.2233973109
 H         -5.1329612736       -5.0795507517        0.9102752020
 H         -3.5406511435       -4.3895760620        1.3092088920
 H         -3.3098881746       -2.2157331781        2.2523181499
 H         -2.5596531295        0.0882970349        2.3856050796
 H         -2.4511584114        3.3486614615       -1.2404539978
 H         -1.3551391238        3.3048336240        1.3692750654
 H         -1.9546920089        0.5161230902       -1.6405603478
 H         -0.9309986248        1.8276179929       -2.2441250944
 H         -0.7786443128        0.5699492193        0.5432073760
 H          0.3071435215        1.8288604533       -0.0972473712
 H          2.0647717366       -0.8397466731        0.2805584663
 H          2.1934880378        0.8920277544       -0.0588778851
 H          2.7391825321        0.3864906088       -2.4356445918
 H          2.7240806672       -1.3422088096       -2.0685565098
 H          4.5670628998        1.8010317585       -1.6801424680
 H          6.8382215673        1.9770350346       -0.8126271436
 H          8.5027598726        1.9046658514        0.8736574218
 H          9.1464727505        1.4107912278       -0.7188371309
 H          9.9145777490        0.8235121622        0.7768622408
 H          7.0508834276       -4.2201713580        1.0527754133
 H          5.4103448731       -3.5473887117        1.2144968380
 H          6.0496762383       -3.9768786925       -0.3994006797
 H          4.3960853204       -2.2992011532       -0.5303442280
 H         -0.7202907673       -1.2528967877       -2.0549593762
 H         -0.6492705439       -1.6282299083       -0.3224387452
 H          0.6997485666       -2.0570963001       -1.3950338832
 H         -4.8328797392        3.0163888284       -0.2740998593
 H         -4.6028205002        2.5277678273        2.7244713359
 H         -5.6538501502        1.6881407237        1.5855001130
 H         -5.9608230896        3.3793676498        1.9817403982
 H         -3.4986865531        4.7242805022        1.8684759516
 H         -3.1552127311        4.8944051674        0.1440363547
 H         -4.7770082430        5.1873508289        0.7532794311
 H         -1.6179568272        2.5114534434        3.5502779632
