  25
        -42.17463579
 C          3.2165150983        0.9348969041        0.0377821631
 N          2.1163345253        0.0083117714        0.0405486533
 C          2.1877051586       -1.3213434205        0.0568252498
 N          0.9464131057       -1.8478575589        0.0169152818
 C          0.0568023429       -0.8174994570       -0.0282514943
 C          0.7873554355        0.3593239609       -0.0101209466
 C          0.1339610315        1.6491311716       -0.0388042905
 O          0.6598777089        2.7359252619       -0.0168404869
 N         -1.2732986887        1.4845674350       -0.0980287408
 C         -2.0168709906        2.7331347021       -0.1478847411
 C         -1.9682573899        0.3533113985       -0.1131939502
 O         -1.4065089331       -3.1018289903        0.4667627365
 N         -1.2971224462       -0.8204463981       -0.0707829025
 C         -2.0413780630       -2.0750721444       -0.2203420547
 H          3.9735284517        0.6252079213        0.7564056726
 H          3.6686977575        0.9800292100       -0.9547620097
 H          2.8426033514        1.9258433685        0.2929578494
 H          3.0929001445       -1.8932119785        0.1001184936
 H         -1.5576979457        3.3933116898       -0.8834048054
 H         -3.0475563468        2.5200940245       -0.4130496714
 H         -1.9760635101        3.2276544253        0.8230040823
 H         -2.0535626450       -2.3428138245       -1.2860632291
 H         -3.0656035308       -1.8842785022        0.1120169696
 H         -1.7789346565       -3.2231021391        1.3492657927
 H          0.6715481727       -2.8247611021        0.0380190832
