25
 energy: -42.062204737526 gnorm: 0.002882583405 xtb: 6.6.1 (8d0f1dd)
C            5.57552757684049        0.93673358870532        0.14490414445055
N            1.90342289607326        0.33767406625842       -0.02846174039800
C            2.29741889572117       -0.92888691353154       -0.01579057272678
N            1.20953115902180       -1.72962184151430       -0.01023124323296
C            0.09415984649271       -0.93816963544531       -0.01934544208270
C            0.53257299579482        0.37535302748906       -0.03197877348540
C           -0.39572870512566        1.49655340638424       -0.02877258126852
O           -0.08253962363708        2.66012879327411       -0.01819435919833
N           -1.71504517576265        1.04661305901069       -0.03676459635323
C           -2.76468519881083        2.05899054231658       -0.04108203285472
C           -2.17583366900190       -0.25693248680962       -0.02076470375244
O           -3.34236786227246       -0.52859767841598       -0.01189885551866
N           -1.20108121289890       -1.28517590155751       -0.01558717536793
C           -1.64136913069362       -2.66662366039168        0.00347015169121
H            6.06261620849524        1.16774556136670        1.07951324438774
H            6.13643968350728        1.02721045592585       -0.77473728141080
H            2.50543405695874        1.15344385825553       -0.03222318475889
H            3.31569630946597       -1.26525853488042       -0.01050924957924
H           -2.29042544096313        3.03695870576057       -0.03602525427626
H           -3.38458020456887        1.94235517922695       -0.92935028305170
H           -3.39617439727937        1.93902889376282        0.83832862194146
H           -1.28246401881561       -3.17135793395246        0.90069559796786
H           -1.29793002983497       -3.19092844678647       -0.88860745377593
H           -2.73099232596471       -2.65895721635021        0.01284133951897
H            1.22882888138955       -2.74004034639987        0.00174330102555
