72
 energy: -99.287208884381 gnorm: 0.003760054901 xtb: 6.6.1 (8d0f1dd)
N           -1.86212950050313        2.77658128485190        2.26707460062712
C           -1.84062751132529        2.00833282325522        1.27915534301524
C           -2.96107144878973        1.87947688170035        0.28113829971472
C           -3.49192594160069        0.45765865384125        0.28960236949258
C           -4.32054807580389        0.01471866523558       -0.74254502110877
C           -4.83218009651399       -1.26447737962091       -0.71365474503789
O           -5.65248475403047       -1.76629181707831       -1.79008716151867
C           -6.55903649611803       -0.86634930513413       -2.48994028210633
C           -4.57594370919594       -2.15090789181682        0.33697496070300
O           -5.18413232990733       -3.36639505827496        0.23491927665445
C           -4.98493643604405       -4.30591676432976        1.27252141317717
C           -3.75480395645411       -1.70765641528143        1.36507605545610
C           -3.22463090605037       -0.42357278247581        1.33089215176241
C           -2.34304851599223        2.21355794615401       -1.10174957143074
C           -1.40286302069743        1.13437102823316       -1.66908257340631
C           -0.08328642680910        1.09335482038281       -0.99927154838315
N            0.56318640228755       -0.01320417649107       -0.62106692803048
C            1.94986766339705        0.05320708296617       -0.22880513313918
C            2.89218212557140       -0.38297646215019       -1.36793464979065
C            4.31936876042181       -0.14982082918766       -0.95983818297870
C            4.94406221982566        1.05329267861733       -1.23877245191027
C            6.24754741993823        1.28814242645981       -0.82781203569254
C            6.94951731642073        0.32320282694697       -0.12185658302689
O            8.21462876223185        0.44459477389395        0.32924046708546
C            8.91908808300467        1.63728071855435        0.07355397164517
C            6.31641953944359       -0.91468084556567        0.16995008875084
O            7.07229654749004       -1.79866668897324        0.85695748807919
C            6.53653348048613       -3.06129528647162        1.16914358090464
C            5.01400004021317       -1.12736960246960       -0.25036790969876
C           -0.04636778643113       -1.31759870702384       -0.69794854348294
C           -4.16369475315049        2.83093755172884        0.56222577827872
C           -4.82321928709688        2.52090079823573        1.90452365317581
C           -3.78440269698401        4.30841922846252        0.50805030879857
H           -4.58424015610105        0.65613486453789       -1.56738006596232
H           -7.15888763243918       -0.26560416711286       -1.81932709797332
H           -6.17081321950132       -2.50800924981823       -1.41792662937750
H           -6.01456268240954       -0.30918842095554       -3.23919100791032
H           -5.35454538150203       -3.92544603266387        2.22778705758015
H           -5.55738845939657       -5.18489707570630        0.98431072156605
H           -3.92911943282731       -4.57278343410700        1.36305603494410
H           -3.53338533589694       -2.34674259875473        2.20349289525922
H           -2.61168649292957       -0.10120065426103        2.15804716790061
H           -3.15098075527217        2.37318636939004       -1.81544466887096
H           -1.79169035410630        3.15018785887407       -1.01755120462340
H           -1.89379681084593        0.16284221118175       -1.64763805713511
H           -1.23085977267349        1.39374423865879       -2.72247953027151
H           -0.97218682201407        1.38461060548012        1.00380715247923
H            0.46521531387391        2.01884528497919       -0.92083929604060
H            2.11031862371209       -0.58781570426402        0.64246808421122
H            2.19307553981599        1.07943052795174        0.05363185402222
H            2.65876343616906        0.20418489735381       -2.25771789973855
H            2.72947256218780       -1.43713429267334       -1.59596556497581
H            4.42094092733276        1.81861500305662       -1.79194774579014
H            6.70972470969662        2.23157509759114       -1.06749738517853
H            8.42636664235094        2.50027903479024        0.53214525476718
H            9.03642426559758        1.81138896423069       -1.00036462312009
H            9.89939288510145        1.49985895280604        0.52569164130255
H            7.32519251591912       -3.58989725862838        1.70106423418796
H            5.65838738754860       -2.97638159740576        1.81788815437434
H            6.27210972993018       -3.62053538291353        0.26602074997290
H            4.52586743243150       -2.06627035968919       -0.04009938444630
H           -0.19036292307321       -1.63212543012429       -1.73455557603859
H           -1.01619376847874       -1.31417285646357       -0.19417765340897
H            0.59684582471048       -2.04148219632648       -0.20358786515209
H           -4.89973793119751        2.63907848302249       -0.22783678395879
H           -4.13061639144910        2.72646187522270        2.71390253720501
H           -5.13764638797353        1.48126544239170        1.96212107451647
H           -5.70064311515900        3.14923432743390        2.03160970099269
H           -3.00571791933165        4.52263961500671        1.23279716589461
H           -3.44868347447606        4.60521175015551       -0.48171915494980
H           -4.65585319542478        4.90832019162603        0.75639047690518
H           -1.02934849613205        2.80588046144739        2.84801359286328
