25
 energy: 47.103682990065 xtb: 6.6.1 (8d0f1dd)
C            3.30756523824576        1.50625952118873        0.10453227931066
N            2.53389971091363        0.30280780332457        0.03712636553853
C            3.01151472290841       -0.92932417755223        0.03030448984497
N            1.97281421608432       -1.79726861290007       -0.00524764504764
C            0.74133622641034       -1.05502452397151       -0.01392651388724
C            1.18227977345713        0.26439198512113        0.00957729707265
C            0.27053951109719        1.37462961900336       -0.01048703925699
O            0.63676884149056        2.54631493038058       -0.00964756137729
N           -1.01831302021158        0.96557607881029       -0.03829002295444
C           -2.02889591158358        2.01749925538971       -0.05090021125480
C           -1.46770058349849       -0.41387020087320       -0.05053971753765
O           -2.66886264791809       -0.54259820346259       -0.07279627308446
N           -0.52819997216973       -1.41195742410307       -0.03829491288763
C           -2.88142910960084       -3.26291731816426       -0.07887422257118
H            3.77635630639473        1.57331018150264        1.08400029869768
H            4.06966371309517        1.50078258711297       -0.66882409251485
H            2.63409682544879        2.35070448782075       -0.03588775320793
H            4.08483019660446       -1.06086118680270        0.05186374722468
H           -1.48576671881300        2.96017987304099       -0.02438945787549
H           -2.62878934758178        1.94622552666317       -0.95450861790051
H           -2.67443982637429        1.92111507001892        0.81831808234231
H           -2.59778379713601       -3.70912145593767        0.84478374990397
H           -2.62302061192904       -3.73147193120002       -0.99586850906331
H           -3.70281221202260       -2.58702862007222       -0.07801764971639
H            1.95279636228335       -2.79367501124120       -0.02498955224313
