25
 energy: 50.343087743857 xtb: 6.6.1 (8d0f1dd)
C            3.27902179164291        1.37313841165935        0.10305403494917
N            2.46345522874778        0.20337664463966        0.02091191467981
C            2.89412339919377       -1.07706002455990        0.02739294090495
N            1.78615522974916       -1.87485732990832       -0.00439688134855
C            0.60693574629402       -1.14475636076730       -0.02299728753650
C            1.09190976788203        0.17335284311593        0.00332393531368
C            0.23539507754136        1.30877872588845       -0.01644050663012
O            0.61736244531255        2.47477773955748       -0.01490823315876
N           -1.10047564041854        0.94751280273270       -0.03802908057611
C           -2.05373218695900        2.06046034705594       -0.04965503356620
C           -1.60796476151258       -0.37226873337130       -0.05691937463650
O           -2.81684301545531       -0.45843334629830       -0.07445146584353
N           -0.73355496579176       -1.46286642495480       -0.05526146526540
C           -2.29922632830220       -2.98974608171035       -0.06338892125647
H            3.76197064950687        1.43411958451657        1.08184273833319
H            4.04531430151826        1.32386308222945       -0.67035290530885
H            2.64775148766311        2.25029889477374       -0.04525531548873
H            3.94315631342714       -1.32597565546413        0.04561813309623
H           -1.46045877935376        2.97377191883384       -0.02512403273375
H           -2.66288725848890        2.06072323207664       -0.95239758032470
H           -2.70779324862492        2.04186574569948        0.82084460262621
H           -2.00762698180580       -3.50067371223258        0.83026654020121
H           -2.01730324033738       -3.50631518572107       -0.95650048746766
H           -3.23268800007208       -2.45015634349042       -0.06412350483713
H            1.81460683436578       -2.86830713867220       -0.02327449774179
