25
 energy: -2.195137610662 xtb: 6.6.1 (8d0f1dd)
C            3.24917365784431        1.22309099547386        0.09103541267008
N            2.33779744595187        0.12699440899363        0.03025277860486
C            2.68083118730516       -1.20797075506899        0.03040314044342
N            1.51924599678837       -1.93501192485885       -0.00304485304127
C            0.44160521676217       -1.11773796248820       -0.01516838932987
C            0.94515605230376        0.19007692838090        0.00240964244241
C            0.14209755311246        1.34569497102850       -0.00956217559140
O            0.51973635737342        2.52363757714686       -0.01268598042236
N           -1.24293365886539        0.99909098929018       -0.03281122610419
C           -2.18101161919992        2.11370958469126       -0.05037757677738
C           -1.78227146257081       -0.25053229498819       -0.04988766396658
O           -2.98621066867761       -0.42588938935246       -0.07212702472406
N           -0.92499468340142       -1.38790689431919       -0.04279763310284
C           -1.63766118683357       -2.67870760073481       -0.05987407463086
H            3.73306809223835        1.27297861165865        1.07214994102811
H            4.02136373480143        1.11213844895405       -0.67438100568769
H            2.68505446756901        2.13941241732409       -0.07768854698856
H            3.68227841457256       -1.57624295739366        0.04195705454136
H           -1.60928427420940        3.04130470179672       -0.02589337903701
H           -2.78076048946927        2.08057711281838       -0.95758217229233
H           -2.83283532287491        2.06449842856316        0.81903548383363
H           -1.39578934226827       -3.26901654748142        0.82759342253929
H           -1.37921016630337       -3.25620644824857       -0.95174198821603
H           -2.71589543327645       -2.47882348124363       -0.07018177995952
H            1.49663219159022       -2.93445554455886       -0.01831831781048
