25
 energy: 18.243528442944 xtb: 6.6.1 (8d0f1dd)
C            3.25399238030578        1.29439282907703        0.09524314144435
N            2.38227661001951        0.16554134373175        0.02171313476527
C            2.78120665958282       -1.15808489101475        0.03018646818352
N            1.64755705435046       -1.92405963647369       -0.00260267123743
C            0.49993958739961       -1.19162356557078       -0.01787149312124
C            0.98479865444229        0.14736520447191        0.00202759813321
C            0.18022336838693        1.28936489966909       -0.01377255724686
O            0.55976984345734        2.46705927175872       -0.01516320374986
N           -1.19978596289858        0.94060042016409       -0.03629758151145
C           -2.11792777802744        2.08392447963834       -0.04899553889652
C           -1.72849737480118       -0.31838249773037       -0.05283779199570
O           -2.93762518671738       -0.44089615838109       -0.07479301731636
N           -0.92157834719550       -1.51175039932754       -0.04743249119364
C           -1.86013450678594       -2.75830556537803       -0.06205739432686
H            3.74443414684062        1.35234867253796        1.07424780916225
H            4.02647020729287        1.21494975102457       -0.67517555675619
H            2.66047142703304        2.19388181834866       -0.06406294088728
H            3.81133927772034       -1.46036222426089        0.04501693280034
H           -1.52511044994368        2.99843392502062       -0.02466724832536
H           -2.71816596380874        2.09687407274528       -0.95558895139762
H           -2.76578765865057        2.08105305385282        0.82401270945513
H           -1.69144684169320       -3.38109795989292        0.82050862797416
H           -1.68102784802229       -3.37587955864499       -0.94700613015138
H           -2.92350804920299       -2.44182496714551       -0.07065999684337
H            1.66430559323225       -2.91936183182585       -0.01852057616593
