25
 energy: 45.195557864088 xtb: 6.6.1 (8d0f1dd)
C            3.36463102166895        1.53442182591415        0.10666778408159
N            2.59131868501410        0.33620899618838        0.03935746340616
C            3.06292934802370       -0.89778717763823        0.03258036770742
N            1.99417896019404       -1.74367788665848        0.00024685319701
C            0.79026251972506       -0.99485462519695       -0.01268572014488
C            1.23012514339531        0.32351200616965        0.01340571191281
C            0.29758738612148        1.41020519463238       -0.01050884506740
O            0.62693862414859        2.59062318683117       -0.01182832729512
N           -1.00710225565030        0.98859031333197       -0.03409288816118
C           -2.02606888821383        2.03101069533980       -0.04905190673468
C           -1.43563540781814       -0.37894187373218       -0.04962319856292
O           -2.62863198079264       -0.57959150328004       -0.07087106652879
N           -0.47557195148417       -1.36692878226409       -0.04059996119377
C           -3.07340835780109       -3.47691014544349       -0.08204466035947
H            3.82879354618799        1.61533849692548        1.08839130325092
H            4.12791969165005        1.52722169558657       -0.66731340413761
H            2.67533101133973        2.36664903622042       -0.04220899727704
H            4.14275648168028       -1.02144704969036        0.05439956515549
H           -1.50723224906915        2.99004556032932       -0.02309849579999
H           -2.63593835718048        1.96490366166380       -0.95055757511692
H           -2.68357737454708        1.94137543279663        0.81610992277527
H           -2.70469675103785       -3.84012326352967        0.84815332568891
H           -2.74572343199465       -3.87883500130095       -1.01227479215818
H           -3.78521447941930       -2.68819239370012       -0.08113624273056
H            1.87639228428975       -2.73391436310828       -0.02764785318469
