25
 energy: 50.459326604493 xtb: 6.6.1 (8d0f1dd)
C            3.29753696573138        1.44238117599480        0.10779423617098
N            2.50995234634555        0.24302709512558        0.03371668681665
C            2.96749850100037       -0.99621172815050        0.03111372314299
N            1.90473843415162       -1.83165744279964       -0.00002368358869
C            0.68705318144942       -1.11586704980458       -0.01221461490762
C            1.14741980034321        0.20587681466949        0.00915332312970
C            0.27060354593024        1.33428625149573       -0.01371672542420
O            0.65959435056772        2.50027772870903       -0.01060902219293
N           -1.03998502483864        0.94112653298405       -0.03815277782618
C           -2.02099852497755        2.02047065371245       -0.05012740432595
C           -1.52785568062844       -0.40677637212615       -0.05174598197977
O           -2.73529563709974       -0.49942842416991       -0.07365414585543
N           -0.61733453456331       -1.44656314457814       -0.03850946842502
C           -2.62349269238399       -3.08720906700323       -0.06931643394675
H            3.78190489100164        1.51370781218680        1.08284195684435
H            4.05902313494842        1.42340997272339       -0.66940857356404
H            2.64333614186296        2.30634160218532       -0.02935056731181
H            4.03220961996733       -1.16812008465534        0.04514349712932
H           -1.42153764278674        2.93374616540010       -0.02573611045447
H           -2.64057320264639        1.99783120693209       -0.94922546005378
H           -2.68624945163642        1.97749662545298        0.81541511235664
H           -2.32861954849569       -3.57535145009164        0.83005910000310
H           -2.34328141675327       -3.58623550776566       -0.96567272091203
H           -3.48292976053584       -2.45375583072068       -0.07158386023452
H            1.96632981879988       -2.82494986644297       -0.02319905330790
