25
 energy: 26.143121584525 xtb: 6.6.1 (8d0f1dd)
C            3.25753866363491        1.31299780301891        0.09709062342563
N            2.39676388126141        0.17713708928784        0.01902852794414
C            2.80859217807864       -1.14355532554724        0.02937864361394
N            1.68130130298063       -1.91790890860706       -0.00257736994755
C            0.52153249788773       -1.20302164862947       -0.01805207948847
C            0.99973586748330        0.14192387396006        0.00244023187571
C            0.19290670383732        1.27925074269928       -0.01465148119701
O            0.56969618356681        2.45690089412178       -0.01569209856055
N           -1.18392582857431        0.93249492611860       -0.03703943876240
C           -2.10180829980656        2.07771620778042       -0.04915201217662
C           -1.71092825438154       -0.33019730079356       -0.05342614913937
O           -2.92106824568301       -0.44377236429696       -0.07440203158684
N           -0.91140295382416       -1.53102069024955       -0.05067461632866
C           -1.91644942072533       -2.77976736053211       -0.06263000684494
H            3.74871499823690        1.37156343009511        1.07570623462573
H            4.02982788140127        1.24081520809338       -0.67410168789976
H            2.65726686420372        2.20840585046996       -0.05929535276718
H            3.84431901929068       -1.42911149792463        0.04434450072917
H           -1.50591112300180        2.99004451453186       -0.02498591672707
H           -2.70174432060779        2.09602526072776       -0.95567637280684
H           -2.74839380314155        2.08030981774208        0.82460072774523
H           -1.76197670446812       -3.40566752733271        0.81928549021603
H           -1.75470647067423       -3.40316106757041       -0.94563896103178
H           -2.97647078074165       -2.44137462801909       -0.07026681669769
H            1.70590233381333       -2.91220130603413       -0.01916829633294
