25
 energy: 46.238092001919 xtb: 6.6.1 (8d0f1dd)
C            3.33632291531875        1.52003027347359        0.10452123502531
N            2.55678265790355        0.32893300736413        0.03594215341397
C            3.04065523013397       -0.89583188102219        0.02805054867492
N            1.99414075326327       -1.75792853269256       -0.00289303517687
C            0.76363046966571       -1.02781701345114       -0.01538687451783
C            1.20145648425523        0.29404171725952        0.01013676813363
C            0.28118036795913        1.39493895925516       -0.01173830215229
O            0.62666692761291        2.57296359777385       -0.01105210985911
N           -1.01990832164571        0.98233978101381       -0.03740691115665
C           -2.03210601260190        2.02733142992203       -0.05010357040465
C           -1.45315140316473       -0.40056167476403       -0.05058331900519
O           -2.65112155470704       -0.56745737643493       -0.07105227478297
N           -0.50810667450852       -1.40441163906886       -0.04206491594041
C           -2.99776584653035       -3.35270771511942       -0.08078179320221
H            3.80142795219714        1.58636010188107        1.08737677717963
H            4.09621527487588        1.50178081756182       -0.67278450635550
H            2.65826985254122        2.36135357461024       -0.03745457466291
H            4.11810367267787       -1.02490125009313        0.05446577038394
H           -1.50971442773264        2.98284963745795       -0.02369817776495
H           -2.63732781406830        1.96464604785724       -0.95249054778730
H           -2.68317157759266        1.93886322315351        0.81739300130526
H           -2.67082550511324       -3.76355647099345        0.83855947951649
H           -2.67385082366255       -3.78734461977827       -0.98896412171656
H           -3.79988343690039       -2.65523141003089       -0.08312650393368
H            1.94724504816146       -2.75195401389839       -0.02535942643623
