25
 energy: 47.948793277583 xtb: 6.6.1 (8d0f1dd)
C            3.30094479490957        1.49555917643263        0.10616047608938
N            2.51866239399969        0.29417262003626        0.03639824049569
C            2.99115464831812       -0.93840772867972        0.03077166803489
N            1.95223351716770       -1.80812349437570       -0.00511407715648
C            0.72683933688133       -1.06773648278750       -0.01342449473964
C            1.16785594182596        0.25303700575923        0.00962353035336
C            0.26531767190863        1.36679922316981       -0.01019551581977
O            0.64301508553520        2.53476364580037       -0.00956954459548
N           -1.01994764049637        0.95665090847462       -0.03848825240468
C           -2.02262031365145        2.01302221996001       -0.05080576695591
C           -1.47899143238916       -0.41545356811908       -0.05030478900018
O           -2.68125884961159       -0.53057894369891       -0.07313534489396
N           -0.54673745964264       -1.42078697503103       -0.03834048470244
C           -2.83039228375840       -3.20433068627287       -0.07608581551467
H            3.77716404526885        1.57143513347478        1.08258354357133
H            4.06539412079950        1.49742521339346       -0.66594784445230
H            2.63094752311105        2.34576579070311       -0.03309372193058
H            4.06688857124285       -1.04877188045207        0.04561399633225
H           -1.47125842482377        2.95146651949394       -0.02420812049944
H           -2.62797110864665        1.95759056440960       -0.95345713575652
H           -2.67358185678530        1.93439000164978        0.81788846235742
H           -2.55547398942102       -3.65995580174675        0.84185080741584
H           -2.58200627147676       -3.68362332425482       -0.98614547027096
H           -3.65987214706293       -2.53881900930260       -0.07595703786698
H            1.98398420239569       -2.80380358722108       -0.02543301677360
