25
 energy: 47.291040073178 xtb: 6.6.1 (8d0f1dd)
C            3.32078242087707        1.52011944677781        0.10407808214036
N            2.54601194996643        0.32002993920416        0.03729892239876
C            3.02966962499558       -0.90761048159014        0.02848275499509
N            1.99136460406532       -1.77736003457557       -0.00503667247986
C            0.75684044888396       -1.04471728147343       -0.01518908964890
C            1.19332025857775        0.27812323915617        0.00965430505325
C            0.27598494410158        1.38359011071113       -0.01117477404488
O            0.63160478173745        2.55880095475458       -0.01020594587290
N           -1.02003209260269        0.97587786501015       -0.03794097074736
C           -2.03624474690681        2.02303478851150       -0.05090985252231
C           -1.45881568255079       -0.40797699690809       -0.05042369116095
O           -2.65895261538252       -0.55621349361991       -0.07146478188619
N           -0.51567370540292       -1.40827616543557       -0.03966463821364
C           -2.95412488195667       -3.29504573943295       -0.07995147547602
H            3.78596779057018        1.59143893393026        1.08497085927128
H            4.08357295204468        1.51827085429109       -0.66943319825530
H            2.63849021501637        2.35456792877573       -0.03802613316170
H            4.10745741079485       -1.02982831690411        0.05430003842938
H           -1.50243492354539        2.97079664186611       -0.02454096716298
H           -2.63935286418093        1.95154287130258       -0.95379261074414
H           -2.68416354692739        1.92588220100272        0.81774398641017
H           -2.69015572469734       -3.74468195760288        0.84432789825488
H           -2.71811397858152       -3.76658628134180       -0.99848242412127
H           -3.76719932059774       -2.61214064128418       -0.07845369204160
H            1.96585389151157       -2.77029200601741       -0.02592768170634
