25
 energy: 5.722098654733 xtb: 6.6.1 (8d0f1dd)
C            3.25191828103713        1.25815270190420        0.09337182106104
N            2.35941471004226        0.14553664836511        0.02649950576076
C            2.73081727175343       -1.18481911842300        0.03076257849244
N            1.58292182065643       -1.93107368832041       -0.00374929155959
C            0.46885919734463       -1.15656476604527       -0.01788990619944
C            0.96347819274971        0.16664038895984        0.00099232375073
C            0.15972463616197        1.31624738335001       -0.01272727764539
O            0.53744362644553        2.49456259500107       -0.01528052014182
N           -1.22443423517664        0.96652975125962       -0.03469172259115
C           -2.15046158318958        2.09697619108780       -0.04930212924708
C           -1.75707154993475       -0.28635299235565       -0.05212346987073
O           -2.96352065377762       -0.43854165995961       -0.07418625905327
N           -0.92261825644153       -1.45109741554691       -0.04631204240921
C           -1.74791990772379       -2.71604212821743       -0.06070311367952
H            3.73893356706604        1.31234106674992        1.07379948355321
H            4.02489286814077        1.16273327411138       -0.67442437050493
H            2.67302616378810        2.16625986539783       -0.07142245588042
H            3.74720176390177       -1.52099061373482        0.04480381290858
H           -1.56722223905409        3.01748641117936       -0.02501354480983
H           -2.75012685435760        2.08860851794255       -0.95639510466438
H           -2.79910477096326        2.07247185078755        0.82275118916678
H           -1.54407784951979       -3.32606769698164        0.82332058569682
H           -1.53256879376450       -3.31743470989961       -0.94910704075173
H           -2.81883880452261       -2.45189727690256       -0.06879089170227
H            1.57961603488264       -2.92824176248003       -0.01884035478909
