25
 energy: 49.480435065578 xtb: 6.6.1 (8d0f1dd)
C            3.30327477005672        1.45750298237867        0.10663791366580
N            2.51513829477805        0.26268043627844        0.03309303876307
C            2.97344093774223       -0.97202952472464        0.03092975766082
N            1.92999016483822       -1.82580311620020       -0.00109582629249
C            0.70708686043309       -1.10337069353282       -0.01231409235447
C            1.15609108583038        0.21924839177066        0.00887939972607
C            0.26899989864334        1.34139602547588       -0.01403064509998
O            0.66298269091151        2.50678961779120       -0.01074878627399
N           -1.03069962063116        0.94406097507588       -0.03887305257597
C           -2.01872652293602        2.01295810265176       -0.05006873947848
C           -1.50869518339053       -0.41271057182320       -0.05224543658584
O           -2.71461295913039       -0.51005084903809       -0.07393342673845
N           -0.58959855785471       -1.44027570192347       -0.03887147630497
C           -2.70286599844731       -3.11924771409607       -0.07097594714980
H            3.78394198440973        1.53388190364087        1.08293293160792
H            4.06504109286332        1.44615765194105       -0.66918303912608
H            2.64084525867890        2.31454473967284       -0.03070990005335
H            4.03726633113549       -1.12372337190402        0.04500712181299
H           -1.43870075195205        2.93593842397346       -0.02462481429341
H           -2.63520632718174        1.98441906994904       -0.94989264139202
H           -2.68116647137533        1.96222920541766        0.81603015550045
H           -2.40339284567733       -3.59576683061945        0.83292222134656
H           -2.42571168793288       -3.61197050664541       -0.97037143407047
H           -3.55212442546202       -2.47276702007929       -0.07205273858252
H            1.98714226317316       -2.82510086123709       -0.02493032477328
