25
 energy: 48.516116189184 xtb: 6.6.1 (8d0f1dd)
C            3.30165141251739        1.47726176623417        0.10648143281397
N            2.51341610940819        0.28152073017738        0.03394414145201
C            2.97458275405761       -0.95082950048635        0.03056116630454
N            1.94024465870553       -1.81680000188228       -0.00369722055804
C            0.71601015161517       -1.08556716238365       -0.01302548889914
C            1.15967062165209        0.23737832656676        0.00873601119430
C            0.26868651411045        1.35563771964189       -0.01297917986339
O            0.65581130630622        2.52210674595547       -0.01062051064171
N           -1.02220619308145        0.95051359866013       -0.03911923393900
C           -2.01670473044135        2.01285950941987       -0.05062103748831
C           -1.49349387939819       -0.41373480037512       -0.05182435999153
O           -2.69763154882484       -0.51822184188156       -0.07380576299186
N           -0.56795195571770       -1.43035521318383       -0.03871739078562
C           -2.77365391747779       -3.15490049988284       -0.07274869175349
H            3.77837420388222        1.54889165838504        1.08222545763738
H            4.06457478641590        1.46973842197146       -0.66687441126208
H            2.63723781966513        2.33291467534705       -0.02951864707638
H            4.04069089764131       -1.08444445858175        0.04472733625910
H           -1.45388939786844        2.94576684443082       -0.02426770395796
H           -2.62852559880497        1.97319954811664       -0.95177070043684
H           -2.67419625766058        1.95007641357758        0.81678368892737
H           -2.48289984750491       -3.62368483616200        0.83643132665741
H           -2.51353158779013       -3.64352268130409       -0.97715858588011
H           -3.61238553601543       -2.49589181497542       -0.07289728874598
H            2.01375797109109       -2.81132026583885       -0.02559600749400
