25
 energy: 53.805538862541 xtb: 6.6.1 (8d0f1dd)
C            3.36026661941633        1.52633359218491        0.10599270892818
N            2.58770140713352        0.32735371691062        0.03995701663756
C            3.09579136769829       -0.89331962917521        0.03293117307147
N            2.06214405674450       -1.75114699355229        0.00033302502630
C            0.77528642859188       -1.01262709027416       -0.01467304864007
C            1.22111357942502        0.29572637461831        0.01213865989726
C            0.28918529556777        1.38992629404924       -0.01035228104623
O            0.63545125531585        2.56526702954912       -0.01093029239647
N           -1.02318456759697        0.99445206682098       -0.03465428670418
C           -2.03057927988225        2.04686861845021       -0.04914910727461
C           -1.46884487129674       -0.36110532929026       -0.05108216841584
O           -2.66395145196653       -0.55380742901212       -0.07126374311480
N           -0.50767068453980       -1.35473873300312       -0.04486162772360
C           -3.08551935715749       -3.50702707808600       -0.08097433255191
H            3.82673576227456        1.60458428054433        1.08735703677462
H            4.12446963525864        1.51280623282974       -0.66786334491285
H            2.67425003394013        2.35960244809199       -0.04240191737966
H            4.17765618046832       -1.00628602470775        0.05611090058321
H           -1.50722229614038        3.00258506078287       -0.02269432299275
H           -2.63985687141572        1.98197495833624       -0.95084547066589
H           -2.68792725474184        1.95782619162848        0.81590201422590
H           -2.68778351862135       -3.86874504092678        0.84217936162831
H           -2.71612230238300       -3.89547320005823       -1.00509862310689
H           -3.75725345693627       -2.67792010174424       -0.08213836739903
H            1.85807859581600       -2.69408142622270       -0.02688505025344
