25
 energy: -4.530330970894 xtb: 6.6.1 (8d0f1dd)
C            3.24693216134353        1.20594764075864        0.08965309419588
N            2.32651555881590        0.11874692376452        0.03171055646589
C            2.65476735810152       -1.21805488495482        0.03056779854834
N            1.48691029014044       -1.93600391213461       -0.00226452363262
C            0.42781726163367       -1.09777657920945       -0.01332775956321
C            0.93633434798053        0.20311573271803        0.00453349587541
C            0.13341313332232        1.36101183071470       -0.00789591427142
O            0.51097105149014        2.53867203842581       -0.01014578487507
N           -1.25125534828617        1.01680038306471       -0.03199753406634
C           -2.19504362597810        2.12472387677090       -0.05062343916551
C           -1.79386280331323       -0.23153828365974       -0.04862165757423
O           -2.99643147457912       -0.41270543281194       -0.07087633374901
N           -0.92830561217324       -1.35683058167013       -0.04086617555312
C           -1.58254616233361       -2.66347635384551       -0.05972915104958
H            3.72856433570329        1.25359477686524        1.07137352795120
H            4.01856061089010        1.08649719654973       -0.67441488980981
H            2.69003398259025        2.12591053160094       -0.08153448780646
H            3.64838833296304       -1.60020416226294        0.04128641638838
H           -1.62997728482978        3.05599109408179       -0.02631861537969
H           -2.79599475360069        2.08115129354131       -0.95719858834133
H           -2.84876803805356        2.06520041989083        0.81737399542729
H           -1.32072654575581       -3.24256051476324        0.82940838041095
H           -1.30156475157609       -3.22738754288693       -0.95315081549544
H           -2.66405701483825       -2.49948764269166       -0.07119343993357
H            1.45538765416290       -2.93682077811785       -0.01764766798896
