25
 energy: 50.726855429217 xtb: 6.6.1 (8d0f1dd)
C            3.29107618121285        1.42204133804706        0.10711938935294
N            2.50077039561661        0.22463671583579        0.03351967203081
C            2.95662464397189       -1.02116953053523        0.03146650325387
N            1.87878503784134       -1.84239978056763       -0.00070144086475
C            0.67013273574898       -1.12601091724456       -0.01649465432592
C            1.13412712587882        0.19641770386172        0.00757585288230
C            0.26612149881650        1.33128661159726       -0.01440830165946
O            0.64598357846514        2.49960450651482       -0.01159071587290
N           -1.05244918844049        0.94337887406282       -0.03774664019987
C           -2.02669451107295        2.03226093125431       -0.04983172013406
C           -1.54633005869803       -0.39910255562991       -0.05266123590940
O           -2.75460122133472       -0.49100191789278       -0.07388109675197
N           -0.64336668105162       -1.44894261879769       -0.04045391199721
C           -2.55951264125087       -3.07021252854958       -0.06687994464339
H            3.77556758757345        1.49371087057829        1.08281898155900
H            4.05374644595530        1.39786778215206       -0.66967987276275
H            2.64178353752260        2.28932755015620       -0.03343501999854
H            4.01954793862520       -1.21105080149474        0.04611378842951
H           -1.42132447920553        2.94409466672526       -0.02581578641011
H           -2.64510432007681        2.01334269532353       -0.94935434923295
H           -2.69020614462383        1.99369978547752        0.81661073075904
H           -2.24715556244149       -3.55297426288717        0.83009170983938
H           -2.26199822783038       -3.56170992541368       -0.96321230342762
H           -3.42662867525322       -2.43292652559688       -0.06701169137531
H            1.93125710373378       -2.83439297189720       -0.02164820826269
