25
 energy: -5.868471684894 xtb: 6.6.1 (8d0f1dd)
C            3.24450963896868        1.18903988740242        0.08688292120927
N            2.31522314418369        0.11091223386112        0.03347552794050
C            2.62763070337208       -1.22768257001458        0.03240552628179
N            1.45410217509056       -1.93627139407103        0.00048768789087
C            0.41396720429410       -1.07773590183106       -0.01037331418370
C            0.92840135835289        0.21692616951060        0.00883409017968
C            0.12487787060866        1.37670408187049       -0.00578996577412
O            0.50287675264270        2.55387838129858       -0.00595340728933
N           -1.25911399180224        1.03479937255119       -0.03113680939485
C           -2.20792878666219        2.13714599791154       -0.04979629071619
C           -1.80384154690268       -0.21299417029257       -0.04767388183139
O           -3.00431851968665       -0.39895874602783       -0.07055982589476
N           -0.93215662942452       -1.32750159635373       -0.03893799160868
C           -1.52689583357944       -2.65141184743678       -0.06088604721251
H            3.72383167554893        1.23619777242760        1.06898746380401
H            4.01534584922124        1.05982300862382       -0.67560047630124
H            2.69530500910373        2.11252711092643       -0.08829996687809
H            3.61286337062405       -1.62358451335079        0.04290088077271
H           -1.64770851861323        3.07073984975340       -0.02535773652021
H           -2.81089087206302        2.08671732103753       -0.95531260237027
H           -2.86339817237479        2.07020484013949        0.81704388864088
H           -1.24490018579953       -3.21791514448340        0.83002017924826
H           -1.22174262888968       -3.19938348655203       -0.95596321673741
H           -2.61087517467863       -2.52488293825022       -0.07445263342314
H            1.41406389622057       -2.93877179614197       -0.01432509772219
