  25
        -42.10953042
 C          3.3855931835        1.5939285678       -0.0054572751
 N          2.5770908253        0.4023863523        0.0001030848
 C          3.0035658975       -0.8539599439        0.0064549636
 N          1.9617082982       -1.7008539519        0.0093194412
 C          0.8051930414       -0.9600420034        0.0046788055
 C          1.2127070156        0.3820963895       -0.0011547388
 C          0.2191040309        1.4378791873       -0.0029525960
 O          0.4625888266        2.6274048515       -0.0078304762
 N         -1.0610349033        0.9187075657        0.0018440587
 C         -2.1695947974        1.8543254381        0.0075581337
 C         -1.4207284563       -0.4555999324        0.0019263965
 O         -2.5921245693       -0.7576228045       -0.0002746989
 N         -0.4289251943       -1.3878364804        0.0050689913
 C         -5.2309586050       -3.2818569222       -0.0176025081
 H          4.0093923099        1.6330798164        0.8875599508
 H          4.0286855621        1.6118897825       -0.8854761128
 H          2.7234616388        2.4598189739       -0.0219041799
 H          4.0349568621       -1.1526109230        0.0092369589
 H         -1.7625748084        2.8631989195        0.0028649218
 H         -2.7940792298        1.6925850090       -0.8712468139
 H         -2.7811768698        1.6959184544        0.8962774383
 H         -5.6201203868       -3.6604349454        0.9074351969
 H         -5.6101125071       -3.6548346774       -0.9480766691
 H         -4.4742684771       -2.5199292852       -0.0116155871
 H          2.0060250039       -2.7102606377        0.0146327342
