25
 energy: -42.090398976313 gnorm: 0.005323806634 xtb: 6.6.1 (8d0f1dd)
C            3.15954452362618        1.09910510574766        0.01743127894154
N            2.19574758973966        0.03338046752705       -0.00048438730335
C            2.47756615684532       -1.27219349992257       -0.00908279952704
N            1.30252204744453       -1.94565139901204       -0.00787078408769
C            0.26167969330652       -1.06213982750172        0.00100837547609
C            0.83143194176192        0.20627210743382        0.00652319186222
C            0.01569912310885        1.39990057507454       -0.00125537232470
O            0.42042609948302        2.53886092466189       -0.01336671210042
N           -1.34541653564550        1.08726726871712        0.00219121591065
C           -2.28698187486384        2.19565519896723       -0.00166706252930
C           -1.92829044964032       -0.16894572966132        0.00451150137312
O           -3.11986143345430       -0.31828307055581        0.00715150493063
N           -1.06433134231845       -1.27931572268587        0.00207442130907
C           -1.63212361967726       -2.61098470119410       -0.00172846824298
H            3.66161166178294        1.13579907042855        0.98605163552040
H            3.91069099661825        0.93303322534915       -0.75431307698130
H            2.65150307404290        2.04728016621895       -0.15481231344768
H            5.34283204493963       -1.83064294571035       -0.02046626765139
H           -1.72160189677083        3.12516338671158        0.00564672487789
H           -2.91848828272868        2.14341198692185       -0.88963597745726
H           -2.93247697849120        2.13658477072244        0.87562533855632
H           -1.31631282286259       -3.16157018620553        0.88508367883789
H           -1.32968182115001       -3.15111982680662       -0.89965741030857
H           -2.71648769954544       -2.50950947687301        0.00672722469560
H            1.24123131854873       -2.95311932675288       -0.01451384242973
