72
 energy: -99.406687105004 gnorm: 0.001506105880 xtb: 6.6.1 (8d0f1dd)
N           -1.88020831695953        2.79690746920589        2.23431110025913
C           -1.82969814722999        2.12195951337162        1.18529753509536
C           -2.97933657177745        1.91734148052650        0.23829336940604
C           -3.45732527994252        0.47475669193754        0.31994304797662
C           -4.40715838965808        0.00925640979407       -0.59172718956925
C           -4.88649155702839       -1.28876952436470       -0.53906433422974
O           -5.81263013182227       -1.81197351570908       -1.36832975750250
C           -6.44461898822852       -0.97832502905461       -2.31111769062056
C           -4.39107438852007       -2.17829678165508        0.45266295751524
O           -4.90540112087371       -3.42383307047795        0.42254034160684
C           -4.52440264505423       -4.34740619306980        1.41528877271588
C           -3.44791663569691       -1.71064822071657        1.35337405559959
C           -2.99094388795650       -0.39974311306760        1.28900098637875
C           -2.42353823768779        2.20416963102503       -1.18102830813777
C           -1.48617422798848        1.11220831066467       -1.72787854052613
C           -0.15597977642574        1.09590974975423       -1.07914559094371
N            0.49577336779071        0.00904015934202       -0.68342854400194
C            1.87399463242389        0.09518319331166       -0.26326826798234
C            2.83853644504265       -0.38624068491632       -1.36374447200938
C            4.25738771133523       -0.16915326645566       -0.91948755585197
C            4.87937688844207        1.05029194092217       -1.13140207954862
C            6.17695039478225        1.27107254245538       -0.69786478591987
C            6.87899373593642        0.27469814231785       -0.03480982145101
O            8.13891560527229        0.37652604394541        0.42633171142750
C            8.85139262841971        1.57368473893108        0.21092519782978
C            6.24597448996035       -0.97873005725556        0.19360574819034
O            6.99663642202500       -1.89150319665950        0.84189080276359
C            6.46466573154976       -3.17168359065765        1.08632927722918
C            4.94754293235639       -1.17593482564729       -0.24943339484187
C           -0.10575996949919       -1.30224057849738       -0.71663281057386
C           -4.18814923194581        2.85401048193380        0.53489002338760
C           -4.83120240009178        2.52553950330580        1.88014252230431
C           -3.82492450089086        4.33541916456734        0.48367141559399
H           -4.78936254721303        0.67799024659526       -1.34479558295063
H           -6.94701874839349       -0.13523458918052       -1.82741530996112
H           -7.18610464154733       -1.60472454053761       -2.80307915978844
H           -5.73655185008638       -0.60480525803529       -3.05802826194461
H           -4.77223465830325       -3.98441477976481        2.41707452115075
H           -5.09461241431795       -5.25067077375926        1.20760416313348
H           -3.45478499298224       -4.57482534249770        1.36277090337580
H           -3.06760683416732       -2.35710037770128        2.12762429570029
H           -2.28147398574931       -0.06375586845463        2.02942080557442
H           -3.26059960685515        2.30595176323153       -1.87063683142592
H           -1.89121183081353        3.15589996051976       -1.16619880798758
H           -1.97747205765774        0.14284988054828       -1.66470386267563
H           -1.32683958796878        1.33773347081600       -2.79040480100778
H           -0.90852110658317        1.63012604460167        0.81396675299326
H            0.39928648771922        2.02254716137554       -1.06278506869245
H            2.01580572736025       -0.51098773931263        0.63570191933886
H            2.11263433936952        1.13171706242185       -0.01623939277482
H            2.64303236272342        0.18280958732193       -2.27435204881538
H            2.66318626467633       -1.44227027117036       -1.57119453721810
H            4.35806212314798        1.83948428465799       -1.65188253180894
H            6.62980390047443        2.23311286464384       -0.87263755416632
H            8.36835464788874        2.42198126096812        0.70546390047588
H            8.96088216663133        1.78632405215453       -0.85682268026467
H            9.83414203163665        1.41271804619156        0.64981076503938
H            7.25337173895618       -3.72410122701024        1.59315386272192
H            5.58400728067047       -3.12285615266516        1.73495198376120
H            6.20610293555533       -3.68349827395252        0.15413904175944
H            4.46227927981852       -2.12583505494238       -0.08902927562723
H           -0.25917689904559       -1.64098727700828       -1.74343659085092
H           -1.06960658874905       -1.29324636302311       -0.20155997778494
H            0.54919914780480       -2.00847559668273       -0.21291899087029
H           -4.92998739785517        2.66201716687915       -0.24844722773867
H           -4.13034901581245        2.72151628807357        2.68505093424565
H           -5.13814714189887        1.48346121013565        1.92511515150250
H           -5.70990947173857        3.14821663405068        2.02560617097191
H           -3.06637329586856        4.56518344121980        1.22557956838593
H           -3.46831340504936        4.63267285283569       -0.49904436944609
H           -4.70853190899759        4.92656582880423        0.70913772085016
H           -1.03205142983890        2.88755638104565        2.78456952385143
