25
 energy: -42.098106259657 gnorm: 0.006145003068 xtb: 6.6.1 (8d0f1dd)
C            3.11159179485528        1.14572043070113        0.03134251133212
N            2.27504621821733       -0.04839254360782       -0.01366875360511
C            2.86483536158907       -1.19438889542219       -0.04193189739485
N            0.94040175313171       -2.36695222438177       -0.02228882681740
C            0.26489193752771       -1.27406677732768       -0.00683973482781
C            0.90834588482436        0.01633423216155       -0.00388309777072
C            0.11938761027891        1.23181896175446       -0.01817296019265
O            0.57630782695719        2.35877375956390       -0.04826342431897
N           -1.25190611136010        1.02098858883350        0.00041303821748
C           -2.12680984969103        2.18043798749217       -0.00443619655817
C           -1.89928621335237       -0.20241340279091        0.01572302982463
O           -3.09798836507198       -0.28512293686880        0.03136984941678
N           -1.09205261530251       -1.33393088388393        0.00895300912165
C           -1.71668626111486       -2.64225506147053        0.01134794611131
H            3.54843983712536        1.24713944985250        1.02585073991028
H            3.91520496016647        1.06702254675843       -0.69912856328013
H            2.50556923396571        2.02976939237305       -0.17562331585742
H            3.91583669285612       -1.40410076439938       -0.03049056326581
H           -1.51340727571600        3.07868345611559        0.00448664178495
H           -2.75970639724751        2.16224062818664       -0.89317541667006
H           -2.77733145110035        2.15328011689625        0.87098385491267
H           -1.39721018316248       -3.19967466967498        0.89286708439188
H           -1.40899341427705       -3.19693135862055       -0.87607705647909
H           -2.79664213470944       -2.50938827497933        0.01907669724154
H            2.05259267471042       -2.21635321566129       -0.04726297732706
