25
 energy: -42.144040328889 gnorm: 0.005009148195 xtb: 6.6.1 (8d0f1dd)
C            2.95193538473278        1.25909163239189        0.48408153078249
N            2.21975472748979        0.07983378646393        0.11114774446306
C            2.77050479234230       -1.03347691043204       -0.31936786855626
N            1.83507153572147       -1.93998697737882       -0.58726686324378
C            0.55481129743232       -1.43543495809847       -0.31638183417070
C            0.81806075846604       -0.07401686165749        0.13839751923599
C            0.05658111472081        1.03265406277501        0.50658927607642
O            0.37981392784223        2.14071486297542        0.83948476301238
N           -1.50950985975300        0.82936977577925        0.42629904085624
C           -2.08012633341575        1.41762511514265       -0.78429301854276
C           -2.12066248185966        0.64272195325704        1.49540255640676
O           -2.56249826712834        0.36667558778613        2.51827037649960
N           -0.40549495279920       -2.23788858608292       -0.53484948184169
C           -1.80008086104793       -2.13601925386386       -0.30835834765952
H            2.74566710479031        1.52506568547909        1.52073459046748
H            4.01612770146876        1.06983224175914        0.36340330741949
H            2.65947386406687        2.10344717710695       -0.14038264362087
H            3.82708197291674       -1.18750497165293       -0.43511334036116
H           -1.80368598302119        2.47222561953721       -0.83635955784395
H           -1.66423091266562        0.89535962070862       -1.64604234355476
H           -3.16367700788126        1.32455006182633       -0.77885080829067
H           -2.03161026466670       -1.93128695180075        0.74227564749205
H           -2.22745112322067       -3.10533886280900       -0.57376356674777
H           -2.27280564192211       -1.37555701639762       -0.93742151368787
H            1.96738102149945       -2.88441729120850       -0.91646354669011
