72
 energy: -99.337498604552 gnorm: 0.009425075593 xtb: 6.6.1 (8d0f1dd)
N           -1.94972180246653        2.78037436272004        2.28442682345928
C           -1.87364432898416        2.06372465446973        1.26338821913692
C           -2.99851942773312        1.84022245377770        0.28970585558780
C           -3.41866495218758        0.37741693256467        0.32839921484521
C           -4.32611739448255       -0.09445926318338       -0.66587655262349
C           -4.87278240562734       -1.36037212236896       -0.59889568005103
O           -5.77378791014188       -1.86232859404528       -1.47381387053099
C           -6.30329752870832       -1.01930044728073       -2.47298584613124
C           -4.50158629775406       -2.24178364266536        0.44550550939921
O           -5.16508806384748       -3.38142519248174        0.55552692401404
C           -4.93230020180593       -4.31788626124854        1.43021203217197
C           -3.43865527762948       -1.86853752002844        1.43012262433343
C           -2.98616237830388       -0.45323598279630        1.30099622689281
C           -2.42725979990640        2.20322437246174       -1.10508912491218
C           -1.46600033602806        1.15477369845592       -1.69311132163315
C           -0.14380911841403        1.12330706660651       -1.02852938403355
N            0.52038085436047        0.02305718526912       -0.68058860688927
C            1.90117589878671        0.09825801450404       -0.26739765510140
C            2.86215270375687       -0.32130803196199       -1.39671410546584
C            4.28431484930551       -0.12599034722361       -0.95180541757753
C            4.92738325501392        1.08275492372776       -1.15795740542158
C            6.22800956092551        1.27862331698458       -0.71938611746594
C            6.91004902620390        0.26767923238419       -0.05874578777511
O            8.17071958431364        0.34659875798031        0.40961296305104
C            8.90005729093058        1.53639894497770        0.21623568798907
C            6.25715590634627       -0.97592095208396        0.16029757423794
O            6.99310930130241       -1.90408578608530        0.80670112189805
C            6.44127649878357       -3.17663234151880        1.04322349589705
C            4.95701783695977       -1.14840469297420       -0.28620267454633
C           -0.06325889713639       -1.29054874976066       -0.79889987732118
C           -4.25809933684085        2.70578657839612        0.58919069593826
C           -4.89171910044795        2.33709926571157        1.92894525722363
C           -3.97465487834797        4.20514809622045        0.55180134222343
H           -4.62501611056958        0.57227934482318       -1.45467848649429
H           -6.78905207045546       -0.14122531620298       -2.03772352822798
H           -7.04495056565036       -1.61848415399209       -2.99752944679942
H           -5.53283025969930       -0.70051100343389       -3.18197878995335
H           -3.82399812633844       -2.01266972427083        2.45504621729146
H           -5.64128466500101       -5.13231684683761        1.44340887734956
H           -4.11076797928163       -4.27023246611431        2.13486452568380
H           -2.57658388585996       -2.55267698763311        1.34168151679984
H           -2.32468882601978       -0.10640795262389        2.07916775430302
H           -3.25487515475008        2.33220447054162       -1.80175966054338
H           -1.90825631038611        3.15946620079707       -1.03175065546946
H           -1.94361724408302        0.17665616389958       -1.68817021137467
H           -1.29838646898263        1.43632185557104       -2.74124176896088
H           -0.94908268460769        1.54962104122624        0.93883842357366
H            0.39317658265268        2.05582336869033       -0.94278696469633
H            2.05398927630781       -0.55130925846424        0.59913953621126
H            2.13312646813028        1.12285431652692        0.02967236704687
H            2.65903729169230        0.29342875998747       -2.27521477808542
H            2.68837605346689       -1.36600661836130       -1.65730842536847
H            4.42100885195104        1.88295445743954       -1.67616584995671
H            6.70477891494012        2.22751630796766       -0.90210491045717
H            8.42268449321355        2.38498934512334        0.71588005625293
H            9.02507301414910        1.76118604651505       -0.84726327758033
H            9.87549240990366        1.35676796665769        0.66405302019357
H            7.21936327642051       -3.74251225574606        1.55181085272865
H            5.55811894518056       -3.11820861321429        1.68787596457884
H            6.17989283014704       -3.68156131888590        0.10793466111422
H            4.45525779998453       -2.09100327239594       -0.13213242697992
H           -0.15856479531724       -1.59147272648604       -1.84494216799829
H           -1.05263433317650       -1.30416532440163       -0.33786377461639
H            0.57105351550349       -2.01079711597704       -0.28772169522485
H           -4.98595953418121        2.47878506948642       -0.19843649139667
H           -4.20507986268948        2.55952421634677        2.73901340141943
H           -5.15364287030913        1.28254692333669        1.96501536918320
H           -5.79828387327259        2.91878595253255        2.07366192361042
H           -3.22910671339810        4.46475202340524        1.29657910561650
H           -3.63325695667407        4.52955563771691       -0.42744890412458
H           -4.88825502847647        4.74687454070067        0.78183292850816
H           -1.11341293765757        2.88057853874569        2.85171841462546
