72
 energy: 37.328928416107 xtb: 6.6.1 (8d0f1dd)
N           -1.91454740880918        3.02252589022399        2.43024427606625
C           -1.87027611465003        2.27899602788815        1.42026727637855
C           -2.99350339025267        2.14318477362443        0.42663836014429
C           -3.55166291849220        0.72994805388962        0.48384054986387
C           -4.46676736002679        0.29758386789520       -0.48017644378589
C           -5.01183378082643       -0.97228969201951       -0.44047388316525
O           -5.91468474677962       -1.46968652915299       -1.33356069647052
C           -6.41474326929492       -0.61641978674067       -2.33078332579116
C           -4.63079896358403       -1.86267843926489        0.59022549576827
O           -5.21186279067223       -3.09269429531911        0.54665695480540
C           -4.92834593843933       -4.00563720867563        1.57629157726982
C           -3.72853989602289       -1.43140014570756        1.54413174243715
C           -3.19721058607364       -0.14745698039688        1.49117872201264
C           -2.36838536682011        2.41031190277887       -0.96083630195613
C           -1.53616371026246        1.26136001621553       -1.54667190431750
C           -0.21632179347421        1.08331504997897       -0.89160138249552
N            0.32857580588955       -0.08632561062570       -0.60050482108255
C            1.59548031852463       -0.24531804362141       -0.26160850936830
C            4.32350638507683       -1.10294069113822       -2.56556029203825
C            5.34599469051799       -0.82435519593377       -1.69908890630523
C            6.02856628808258        0.40824935548653       -1.75927029835410
C            7.08266150973857        0.66536722824482       -0.92510177904014
C            7.48923217294705       -0.26145246734281        0.02940658241364
O            8.50369607954128       -0.09167765478638        0.92043402198860
C            9.22532897792624        1.11043549300240        0.90121995546359
C            6.81039994440649       -1.50532986950607        0.11888382955678
O            7.31084927407618       -2.35627331551928        1.06703258921583
C            6.71337117201516       -3.62226419880020        1.19416324964737
C            5.77141565691070       -1.77074531343428       -0.72621208861640
C           -0.48810168314871       -1.28322291436130       -0.62726343910613
C           -4.16138709635942        3.13842776250548        0.66831226175906
C           -4.85991668473727        2.85280577661464        1.99519202892859
C           -3.72592333438163        4.60160850742640        0.62326645917321
H           -4.76161385821664        0.97438965582615       -1.26558001833837
H           -6.91071774244643        0.25908818117557       -1.89859871480374
H           -7.14525042604873       -1.20925189873091       -2.87819457233507
H           -5.62913781551700       -0.28709072475926       -3.01992356330242
H           -5.21131323496243       -3.60693759491839        2.55565291148492
H           -5.53178945171294       -4.88539193454828        1.35848997915117
H           -3.86993648498984       -4.28815467747585        1.59192645536298
H           -3.42968343293668       -2.08168349933771        2.35069634946724
H           -2.51739490003167        0.16395126354314        2.26927100337262
H           -3.17706564357186        2.62102167968916       -1.66221834778588
H           -1.74504962092327        3.30548201522200       -0.90573243587120
H           -2.11979799356467        0.34339814836221       -1.51797254651399
H           -1.35890508981797        1.51242781867852       -2.60402295337816
H           -0.98869719196612        1.69299958151110        1.11815939202240
H            0.44863231557586        1.93151640626937       -0.88021607266961
H            1.93059404773212       -1.16597987907938        0.15924325977431
H            2.20284858559844        0.62658173582160       -0.14231741932857
H            4.02400332420785       -0.39697652916216       -3.31706001111444
H            3.82853295677762       -2.05680378393952       -2.55061984128243
H            5.71195895910344        1.13890373238670       -2.48655832087864
H            7.61802502733030        1.59496915547008       -1.03591180206971
H            8.58244814032622        1.97192013044980        1.12723309993684
H            9.73871327010889        1.27122513783829       -0.05165449399842
H            9.97080675927263        1.01048027965945        1.69155480121636
H            7.22877305698033       -4.09036299473714        2.03597929801995
H            5.64829342640259       -3.55183040132679        1.40692344414757
H            6.84826038377816       -4.22583785905682        0.28776482054880
H            5.23569303792693       -2.70513233904831       -0.68064036306597
H           -0.74713199582683       -1.55469973099031       -1.65191042987836
H           -1.39458112382287       -1.11757981433356       -0.03746828879861
H            0.08425995480741       -2.10658027787277       -0.20136793373012
H           -4.88796825504445        2.97726949476051       -0.13787810587775
H           -4.16500726694110        2.99994960656880        2.81467948124880
H           -5.23312077267668        1.83206749292750        2.02781503850592
H           -5.70008053045455        3.53165348001223        2.12262155572160
H           -3.00013651788281        4.79715096190669        1.40584713372577
H           -3.29554326322479        4.86745773523017       -0.33878374488891
H           -4.59311780814267        5.23826719890896        0.79033348790279
H           -1.07200074375343        3.04009682213405        3.00483821886099
