72
 energy: 37.255269301064 xtb: 6.6.1 (8d0f1dd)
N           -1.74888490529855        2.93918928856435        2.36115618107068
C           -1.73850391685523        2.22694773922639        1.32640423576524
C           -2.88732733536860        2.11169142382194        0.35670294148328
C           -3.45451609663497        0.70172472220298        0.41947442698337
C           -4.40021378507966        0.27868283399581       -0.51773029232460
C           -4.94727534798805       -0.99089928641572       -0.47482152747337
O           -5.88050501257491       -1.47762403045440       -1.34444245338946
C           -6.40699524730000       -0.61294213074375       -2.31730070731352
C           -4.53842630534870       -1.89419054612546        0.53137948113757
O           -5.12698122074825       -3.12505325354254        0.49107496232285
C           -4.82223610275333       -4.04271732001844        1.50979624120078
C           -3.60468698869036       -1.47363088340410        1.46013975624685
C           -3.07187481942767       -0.19035563534956        1.40321897437561
C           -2.28892439542411        2.36276622749613       -1.04990562977075
C           -1.41161916954517        1.22866237028937       -1.61907204106340
C           -0.05487492146019        1.04001662143789       -0.99466802131946
N            0.55749899351046       -0.12149285845024       -0.73656111073202
C            1.91919425304341       -0.28094789702993       -0.55755142796279
C            3.70820487881462       -0.86551264890189       -2.04844468982785
C            4.91706088153925       -0.66232610769866       -1.36067650621115
C            5.62676701406918        0.53507201908923       -1.48776185191686
C            6.80049527118213        0.73256400142417       -0.79879223509160
C            7.29762508081259       -0.24572934553817        0.04936443718070
O            8.45516325192361       -0.15415843205410        0.76373765080144
C            9.18639197448819        1.03652291640816        0.66907556312576
C            6.59734693051688       -1.46477815058273        0.18575734821973
O            7.18647750884281       -2.37941667578138        1.01611890717152
C            6.56202525341601       -3.62377486608825        1.17541169802729
C            5.43449130891689       -1.65919137763384       -0.51064505962103
C           -0.28802113666340       -1.30438362878474       -0.65447175401109
C           -4.04603498173944        3.11237524495965        0.62830279726554
C           -4.71579670887724        2.82232348056655        1.96992257204636
C           -3.59470908803059        4.57023328724793        0.59135741362115
H           -4.72063284611970        0.96324931067621       -1.28593376031807
H           -6.88364093509813        0.26172653779164       -1.86225609392591
H           -7.15915407508267       -1.19433024064346       -2.84777067000630
H           -5.64229060078875       -0.27809524587980       -3.02691285440457
H           -5.07812463561602       -3.64665973782355        2.49853829261429
H           -5.43292747220120       -4.92143825302102        1.30597583583924
H           -3.76415561608373       -4.32758568851820        1.49817993757753
H           -3.28417165880848       -2.13390119406746        2.25020064049221
H           -2.36795648174800        0.11482748386743        2.16117456730771
H           -3.11566247769961        2.52275921709788       -1.74958626085672
H           -1.70343107098105        3.28099588699935       -1.02267956270204
H           -1.98715624559385        0.30808364556777       -1.56244378067269
H           -1.25988107712135        1.46201310239402       -2.69857217001305
H           -0.85752060642250        1.65992927217944        0.95253085164684
H            0.56464704081173        1.92942151297237       -0.97838073672972
H            2.18930227180315       -1.05285633675316        0.16867575732126
H            2.39571757108573        0.65053849257509       -0.24083440990667
H            3.50397888597576       -0.21156935586698       -2.86259230492630
H            3.35472142092384       -1.86347127896721       -2.14887420680406
H            5.25201577683229        1.30870141333089       -2.14154725047976
H            7.34088373505499        1.65526049382642       -0.93762731858943
H            8.60712960702295        1.90357491694072        1.01087282712298
H            9.53820596590479        1.22249966538842       -0.34821862999385
H           10.05148089053901        0.90059112643541        1.31979997613032
H            7.18068712973217       -4.17259743333099        1.88783563541618
H            5.55655004801621       -3.52128665525497        1.57159369106439
H            6.51762328287894       -4.17850519894555        0.23140743430556
H            4.88674448255883       -2.58476917192873       -0.42574823859832
H           -0.55523450813916       -1.63535388653137       -1.65843804420519
H           -1.19668888846071       -1.07638964952787       -0.07311915137898
H            0.26539127132399       -2.12755596610147       -0.17541091608082
H           -4.78991057330328        2.97188848686467       -0.16541779829717
H           -4.00153903607960        2.96273209495854        2.77102346528712
H           -5.09086183745220        1.80239383913010        2.00683047398842
H           -5.54847105568214        3.50381924175167        2.12836095547711
H           -2.84193037309572        4.73753009192017        1.35262827181855
H           -3.19363118431256        4.84007899695927       -0.38110890821821
H           -4.44250644030264        5.22162804242814        0.79820764692026
H           -0.88621356119217        2.92589797957606        2.89657578829687
