72
 energy: 17.771897214952 xtb: 6.6.1 (8d0f1dd)
N           -1.67762289294857        2.90935415900771        2.32153590176897
C           -1.68604737098191        2.20304268466660        1.28192693084752
C           -2.84883358755436        2.09837323667847        0.32849689658337
C           -3.41883272636447        0.68930741388105        0.39506554613791
C           -4.37583872440930        0.27077197564994       -0.53213325605228
C           -4.92219330223034       -0.99877668944987       -0.48872509272020
O           -5.86452493458162       -1.48204832600885       -1.35104019333507
C           -6.40390056274360       -0.61242937191029       -2.31212176143933
C           -4.50324908376695       -1.90609606805488        0.50874941424402
O           -5.09359030765054       -3.13711321518624        0.46990281810663
C           -4.78261221287644       -4.05688653287060        1.48419234695592
C           -3.55913313821041       -1.49016128390201        1.42862435669210
C           -3.02586668353506       -0.20728288002794        1.37079849956387
C           -2.26306031901766        2.34803310146413       -1.08532939098747
C           -1.36680520175621        1.22591748403407       -1.64396093533997
C           -0.02692784197085        1.07022457865676       -0.97408539357670
N            0.63995381213328       -0.14262263744839       -0.75404250263891
C            2.09606983999581       -0.27761550789263       -0.58663156015783
C            3.38714804315920       -0.75127581819238       -1.78179132116194
C            4.75027129007568       -0.59486069789290       -1.21484519773226
C            5.47284303713784        0.57727582175885       -1.38025817917315
C            6.69482197128309        0.75529735542804       -0.75382747641812
C            7.22234275314456       -0.23869932647972        0.05000259468084
O            8.41301404751880       -0.17041793364163        0.70514402957033
C            9.16020158773719        1.00951920158530        0.58165900151028
C            6.51545733995950       -1.44904588814057        0.20484351147810
O            7.12631556096389       -2.38008371609973        0.99585318340676
C            6.49789165494213       -3.62124863542233        1.16840374191272
C            5.30529707916726       -1.61297105960213       -0.43265732226057
C           -0.21021181354898       -1.31631255831620       -0.65549901855463
C           -4.00141734871086        3.10290807239068        0.61571342002400
C           -4.66085194355136        2.81124690495052        1.96233918438470
C           -3.54474256541981        4.55920467745157        0.58039859634044
H           -4.70531249449189        0.95871779149445       -1.29352386092606
H           -6.87448481355209        0.26091887522009       -1.84801395655123
H           -7.16318259233988       -1.19147223607323       -2.83520891591508
H           -5.64829581985561       -0.27523074062569       -3.03015735113759
H           -5.02924958450052       -3.66274110360261        2.47619622301491
H           -5.39700125057749       -4.93381256064970        1.28345219630484
H           -3.72529993442027       -4.34408834629872        1.46280438751596
H           -3.23056245529733       -2.15442523494006        2.21211609937290
H           -2.31236330229403        0.09372031454720        2.12130625458530
H           -3.09350321538722        2.48807470688691       -1.78410090471091
H           -1.68934604950549        3.27356930557247       -1.06662244668119
H           -1.93510913537774        0.30150192040939       -1.58083870901713
H           -1.19708783543559        1.44318787131170       -2.72064289927397
H           -0.80921735891632        1.64701736885719        0.87457671057697
H            0.60001041984635        1.95250781165958       -1.01809051259189
H            2.22512120846461       -0.96261711989968        0.27972659215461
H            2.38139100925132        0.70813143791951       -0.17124257533066
H            3.30646042735541       -0.14830434513510       -2.67402973536651
H            3.18492443594517       -1.78659652151110       -1.99961956154325
H            5.08651289039485        1.37342251865983       -1.99907857554922
H            7.23533533767312        1.67799434106721       -0.90044759106101
H            8.61610728009936        1.88217095171738        0.96219109657349
H            9.45736650661707        1.19881230310063       -0.45187920908301
H           10.05605725530412        0.85104367655285        1.18146261254820
H            7.14775658477699       -4.19167351022649        1.83256507755343
H            5.51554511875634       -3.51378676933893        1.62269389349400
H            6.39436190571278       -4.15698073436474        0.21915734013664
H            4.75989666514405       -2.53733535507299       -0.32278490653743
H           -0.47690890302710       -1.65131224587301       -1.65967728503481
H           -1.12963998832544       -1.09744507640559       -0.08601947659343
H            0.34120229292118       -2.12469835998759       -0.15971931003393
H           -4.75301732418984        2.96891826711239       -0.17174288769198
H           -3.93982018586318        2.94879347579299        2.75796293899543
H           -5.03722788525752        1.79179658070895        2.00012509405575
H           -5.49142597022356        3.49359307346296        2.12902040313604
H           -2.78133231371383        4.71974233339406        1.33260568750157
H           -3.15491109397248        4.83206271786522       -0.39581485786474
H           -4.38698275845856        5.21332076690964        0.80072844130125
H           -0.81222910064359        2.88747873595165        2.85197075501057
