72
 energy: 38.011727228146 xtb: 6.6.1 (8d0f1dd)
N           -1.83491594175432        2.95259911536972        2.40470157873885
C           -1.80191336796513        2.26236234285164        1.35924184626434
C           -2.94182593025489        2.12799128804022        0.38807963342473
C           -3.50287158315729        0.71546401777571        0.45122788326867
C           -4.43303696888279        0.28889926649556       -0.50034061505059
C           -4.97814878380706       -0.98059419277874       -0.45763843228685
O           -5.89607400756110       -1.46968527320628       -1.33641547698162
C           -6.41043125446171       -0.61322765220570       -2.32366960838147
C           -4.58337764485448       -1.87802051193877        0.56109067846331
O           -5.16744639959970       -3.10740590789298        0.51930598958878
C           -4.87479881269031       -4.02352372545240        1.54335534240552
C           -3.66588730170010       -1.45286630939647        1.50296931747021
C           -3.13434073195563       -0.16888458174707        1.44760840004928
C           -2.32532366394597        2.38738117276815       -1.00497589051077
C           -1.47060972199064        1.24287263616541       -1.57650971893261
C           -0.13832996331086        1.06266161692062       -0.93412912114449
N            0.43162887279277       -0.10575445736547       -0.67891993069110
C            1.73062535693806       -0.26746202394387       -0.44736655670621
C            4.04620883531869       -0.98648974621122       -2.31983496964122
C            5.13708674014453       -0.74355731908087       -1.53434350253486
C            5.83152442293991        0.47229777878511       -1.62630203715920
C            6.94335882445597        0.69931164816926       -0.86262050195657
C            7.39519129705090       -0.25123829330571        0.04329558856338
O            8.48747398756853       -0.12321278920869        0.84120690071311
C            9.20909134716669        1.07426295637040        0.78602408779662
C            6.70525749837716       -1.48437893650616        0.15412612166236
O            7.25253904076542       -2.36739116217587        1.03862446765312
C            6.63712195483927       -3.62172542062092        1.18426390894279
C            5.60512116573944       -1.71558622129701       -0.61789056126507
C           -0.39567343228919       -1.29580686624589       -0.64248221795642
C           -4.10390020875656        3.12603875154583        0.64753683981981
C           -4.78755463106109        2.83726930052180        1.98219309092086
C           -3.66028954111855        4.58648744319411        0.60610602311709
H           -4.74104676710030        0.96928851026359       -1.27723043088912
H           -6.89712943456785        0.26151675780559       -1.88040296523935
H           -7.15202955549460       -1.20042842475240       -2.86250105061691
H           -5.63562009192525       -0.28208853972109       -3.02387906384131
H           -5.14458389082950       -3.62700400475756        2.52759222924390
H           -5.48226194430562       -4.90249838086005        1.33281885525763
H           -3.81696991083785       -4.30833335656404        1.54500377187727
H           -3.35581169314976       -2.10801316508478        2.30128509445487
H           -2.44186557695138        0.13879079583570        2.21590652631990
H           -3.14187234866567        2.57123218258436       -1.70481030836448
H           -1.72511487922024        3.29683191792542       -0.96597259833623
H           -2.05291924102782        0.32498364183988       -1.53855502456025
H           -1.30369718922868        1.48346988856070       -2.64804532362608
H           -0.91959320232213        1.68405679678658        1.02987506338920
H            0.51095779709954        1.92468180008839       -0.93270074929370
H            2.08900432022686       -1.15238670889313        0.04903346325409
H            2.31101712910472        0.61507797452779       -0.23830052006266
H            3.76767258922364       -0.30281139705231       -3.08516682445215
H            3.59087961538503       -1.94916612086046       -2.34209930072648
H            5.48232055829145        1.22234025050523       -2.31521713153583
H            7.47974656371906        1.62327747688994       -0.99158898547797
H            8.59662600217295        1.93340739043203        1.07776081960147
H            9.63778800236509        1.25447512018624       -0.20197943229831
H           10.01688876487474        0.95782091967804        1.50668976586612
H            7.20572383131573       -4.12909497446583        1.96393682074981
H            5.59625118673304       -3.53394943916240        1.48587409826347
H            6.68276928969455       -4.20624547484583        0.25964217251045
H            5.06192917979726       -2.64440925966544       -0.55265248692725
H           -0.65549074843228       -1.59801946195018       -1.65333563995760
H           -1.30024014410211       -1.08660585118623       -0.05523238332759
H            0.16955479450068       -2.11863703253237       -0.18932864940020
H           -4.83939787393112        2.97396834620059       -0.15211169480220
H           -4.08303343623487        2.98117753681265        2.79323393586072
H           -5.16172736726320        1.81700770897903        2.01693804388088
H           -5.62452835780509        3.51697027981658        2.12459338210469
H           -2.92035224935515        4.76943174405784        1.37796587191889
H           -3.24545749212627        4.85485027085407       -0.36167679253897
H           -4.51836501665656        5.22942414623909        0.79404238259386
H           -0.97689338923520        2.98012399980362        2.94912530997196
