72
 energy: 38.162030357084 xtb: 6.6.1 (8d0f1dd)
N           -1.77422649063486        2.95053474416280        2.37523919022029
C           -1.75684394370014        2.23574912148126        1.34164868778429
C           -2.90048604417742        2.11726739904768        0.36609139480062
C           -3.46642419440837        0.70664859580938        0.42756836514128
C           -4.40839258340281        0.28177404608895       -0.51261838820739
C           -4.95500638534887       -0.98800007806200       -0.47025722208812
O           -5.88377274874510       -1.47590715800772       -1.34291622394293
C           -6.40784770701271       -0.61316522892063       -2.31906538990844
C           -4.55011847690984       -1.88989714905301        0.53882710391676
O           -5.13827461971657       -3.12119818350628        0.49800884098329
C           -4.83556311223450       -4.03794378875861        1.51814197419901
C           -3.62013761155872       -1.46778166495126        1.47059515473980
C           -3.08757073431134       -0.18432968327855        1.41395854625621
C           -2.29838065182099        2.37095049351581       -1.03877945527825
C           -1.42890442851246        1.23285157102715       -1.61048189111623
C           -0.07665564886563        1.04361390471595       -0.98422821135365
N            0.52346478571190       -0.11645665702097       -0.72575970813539
C            1.85842372827400       -0.27840124476711       -0.53036142609572
C            3.81073489102420       -0.90169963680311       -2.13024665267196
C            4.97395526885700       -0.68407392788319       -1.40652623323650
C            5.68002931200984        0.52078040174351       -1.52004332219466
C            6.83744058883933        0.72483384912614       -0.81308861015654
C            7.32445509211580       -0.24710870912596        0.05005880675521
O            8.46970231805732       -0.14891353856687        0.78257416146810
C            9.19513144974801        1.04598473623750        0.69883549572900
C            6.62554799256431       -1.46977667913264        0.17940948733004
O            7.20586135412352       -2.37875536468168        1.02053498593994
C            6.58098381372581       -3.62321739899539        1.17842553099740
C            5.47843435190050       -1.67368487207556       -0.53417056942209
C           -0.31615476336728       -1.30152927338283       -0.65103461297002
C           -4.06138905105877        3.11579376550422        0.63289440032530
C           -4.73438778190404        2.82634088971165        1.97288520901012
C           -3.61174328883161        4.57422429609237        0.59525718855652
H           -4.72598490871473        0.96481376415198       -1.28344269912124
H           -6.88691505731749        0.26170752539929       -1.86699560222154
H           -7.15765795250185       -1.19569030941514       -2.85180871626132
H           -5.64055354802966       -0.27895782160727       -3.02614607557976
H           -5.09449577095161       -3.64133037415974        2.50587130199815
H           -5.44499227251012       -4.91733731563936        1.31334435346845
H           -3.77720543055982       -4.32209114967715        1.50989671891716
H           -3.30231901216602       -2.12706239069206        2.26267971787097
H           -2.38677705884452        0.12193641376011        2.17434383873568
H           -3.12329758348479        2.53626834480579       -1.73844857072449
H           -1.70786464238562        3.28518360166386       -1.00814690776601
H           -2.00491595403877        0.31231226840064       -1.55602372582037
H           -1.28282690163529        1.46913157547468       -2.69126077939945
H           -0.87412276829512        1.66636033430162        0.97712148387174
H            0.55402257791441        1.92326979413215       -0.96611127517674
H            2.17093949388203       -1.08416882066842        0.13020244524511
H            2.39086228869426        0.62849387786028       -0.25861675788670
H            3.56869832661349       -0.23224330943108       -2.91879262786245
H            3.41118731067660       -1.88404534526247       -2.19546141778947
H            5.31072788657427        1.28699671937322       -2.18446150859670
H            7.37625566558212        1.64735453500791       -0.95179517441423
H            8.60390924703244        1.91042654587772        1.02753043706839
H            9.56460315752699        1.23154003442068       -0.31217461588090
H           10.04861925529520        0.91695368254531        1.36668816141738
H            7.18809264159696       -4.16198845073635        1.90690413373884
H            5.56615550844577       -3.52316718392558        1.55115511469128
H            6.55795878242236       -4.18663976374194        0.24026651392290
H            4.93118312430536       -2.60005992118017       -0.45666177583393
H           -0.57989734869948       -1.62651350671929       -1.65562159022587
H           -1.22311789252085       -1.07470092550563       -0.06843289075468
H            0.24044561877805       -2.12466865912411       -0.17691707140076
H           -4.80273049674266        2.97305036909983       -0.16281253763454
H           -4.02219305783462        2.96745383232944        2.77582325298414
H           -5.10907541086170        1.80621671839149        2.00937116430399
H           -5.56773593764323        3.50763241305476        2.12846139781111
H           -2.86227551852234        4.74384478917198        1.35930882043434
H           -3.20682989336383        4.84282027267230       -0.37597591076081
H           -4.46124549740412        5.22499283809594        0.79751628476074
H           -0.91130243862844        2.94062666837788        2.91118653788367
