72
 energy: -4.837968937599 xtb: 6.6.1 (8d0f1dd)
N           -1.54757348277187        2.82112522304848        2.26136520742341
C           -1.59088289395587        2.16378034713121        1.19210072866492
C           -2.77742036100548        2.07197440736010        0.27166334205021
C           -3.34807816206674        0.66230549012044        0.34740847722897
C           -4.32643761190468        0.25432885374188       -0.56162000735261
C           -4.87262512572065       -1.01422045722417       -0.51635062681930
O           -5.83357416822001       -1.48782611808356       -1.36052765276220
C           -6.39850038991697       -0.61065532455484       -2.30029139129959
C           -4.43294473276561       -1.93000888682748        0.46457866302914
O           -5.02578830634462       -3.15820442076279        0.42908253556393
C           -4.70327778787425       -4.08561363095901        1.43280868825181
C           -3.46746293519382       -1.52473702231368        1.36599218780074
C           -2.93247823927145       -0.24251896581310        1.30660329048606
C           -2.21767989784680        2.31621580217797       -1.15484026259612
C           -1.28872257265582        1.20124254958652       -1.66543379850586
C           -0.00393927376011        1.12704743949527       -0.89939550604761
N            0.64718774448906       -0.08467238112928       -0.62541082035958
C            2.05022171967982       -0.12434154403583       -0.30376838501737
C            3.07275495801042       -0.60579089920895       -1.43265689657556
C            4.48604564183903       -0.48510287017500       -0.96118955790175
C            5.20559849432944        0.67985340811580       -1.15559143631328
C            6.49001312322966        0.81385551329103       -0.65192041036982
C            7.07320033919321       -0.22006203842892        0.05594686048139
O            8.32503171528018       -0.19941358300844        0.58733323550927
C            9.10066001867320        0.95566411868439        0.40670118780421
C            6.35253856235414       -1.41714930281916        0.25553517151977
O            7.01080768185520       -2.38279934802602        0.95667961206962
C            6.37484604824240       -3.61675072486392        1.15838475019769
C            5.07613468537436       -1.53295357579897       -0.25447184944333
C           -0.10439614684579       -1.31266005518953       -0.63022391287690
C           -3.91221460418002        3.08480434246694        0.59272797679312
C           -4.54979232687363        2.78658696902269        1.94838736733922
C           -3.44372840125897        4.53792204589294        0.55942786971108
H           -4.67340688758317        0.94949635769059       -1.30838627897711
H           -6.85707298156904        0.25956210156218       -1.81855169995445
H           -7.17083379239846       -1.18716872877647       -2.80713387640983
H           -5.66176213878800       -0.27057380936107       -3.03629300217302
H           -4.93131663470740       -3.69689184637872        2.43126644370354
H           -5.32653138693604       -4.95675523262839        1.23532649902698
H           -3.64851731804923       -4.37944474720281        1.39087890943135
H           -3.12345971272208       -2.19655773912733        2.13635960319169
H           -2.20033909397405        0.04825211528600        2.04341274254525
H           -3.05040755682360        2.41745802997268       -1.85397206946683
H           -1.66456244441741        3.25564070453011       -1.15835196198343
H           -1.83889019790260        0.26299799087407       -1.61447009855888
H           -1.06303580766919        1.40012319829737       -2.72588402230213
H           -0.72032570166011        1.64689014044565        0.71381540741430
H            0.64825182537246        1.98411053007003       -0.98659797266450
H            2.16483186465831       -0.76807754260410        0.58323793685277
H            2.31912628544651        0.88816006408929        0.02144535910201
H            2.94342414295648       -0.00344683998866       -2.33042341740025
H            2.84665771139829       -1.64253783020705       -1.67184322202441
H            4.77413454454007        1.50050186014241       -1.70778040923794
H            7.02965491094016        1.73255710121384       -0.82114620052021
H            8.63714621092994        1.83605951651849        0.86517940200169
H            9.28613918360854        1.15920963383483       -0.65142719592372
H           10.04721952591433        0.74666811111305        0.90129283858780
H            7.08538320510345       -4.22512879232918        1.71581383542999
H            5.45674023431068       -3.50850907200528        1.74002915163703
H            6.14398241934105       -4.11313798691000        0.21065130795549
H            4.51865041224775       -2.44522880642819       -0.11154542032977
H           -0.30540908539979       -1.63538522065812       -1.65661018478401
H           -1.05987772112946       -1.20091917276413       -0.10028561870573
H            0.48726291740480       -2.08219838761563       -0.13313269741441
H           -4.67896765921979        2.96145437659906       -0.18097232544106
H           -3.81710344184820        2.91769782982096        2.73570685314012
H           -4.92798660530621        1.76779087578595        1.98531353944631
H           -5.37738035865591        3.46900603735372        2.12768589298434
H           -2.65999293958477        4.69234612031665        1.29317056416463
H           -3.07704030652894        4.81966821165732       -0.42375354847421
H           -4.27679656508550        5.19349789063901        0.80562248619091
H           -0.66586864968418        2.80515056356655        2.76778245558266
