72
 energy: 37.031445034701 xtb: 6.6.1 (8d0f1dd)
N           -1.96418446341132        3.04541526969960        2.44596423772945
C           -1.89794039386920        2.30279215078704        1.43645545250927
C           -3.01660031515167        2.15513418333087        0.43888248611086
C           -3.57316455267135        0.74122975986866        0.50001077193500
C           -4.48109150753403        0.30410258542887       -0.46855962387463
C           -5.02463520266228       -0.96584476666720       -0.42897954182873
O           -5.91980131206094       -1.46692083790250       -1.32829591835654
C           -6.41629899475874       -0.61929029847084       -2.33205775820807
C           -4.65231246756028       -1.85368244254183        0.60545530543646
O           -5.23246840408464       -3.08738530011423        0.55825256929324
C           -4.95492834266669       -3.99620123207574        1.59208670075039
C           -3.75882574730139       -1.41898886641829        1.56581123288231
C           -3.22835347622205       -0.13459998152397        1.51289242263771
C           -2.39564655268772        2.42281428884064       -0.95548295989322
C           -1.56545686628737        1.27336817855490       -1.54400363195093
C           -0.25088879973484        1.09617336879822       -0.87560992076875
N            0.28775401664007       -0.07056190268697       -0.55342745930840
C            1.54160665335379       -0.21791011417034       -0.15498862098460
C            4.46850725260345       -1.15700509794874       -2.67669627933730
C            5.45739780934385       -0.85901805609703       -1.77248775259083
C            6.13387543867937        0.38541091331261       -1.81157217553543
C            7.15534585934578        0.66123299654939       -0.94205485892400
C            7.53196447927620       -0.25827284581536        0.03561014124438
O            8.51178958076029       -0.07581489213703        0.96329144282225
C            9.23222457044964        1.12654469464076        0.95930339814367
C            6.85801877301782       -1.50694012181315        0.10769695343167
O            7.31169427567908       -2.33671815303154        1.09610353879831
C            6.73641846228514       -3.61344317085063        1.20348471065289
C            5.85622503453517       -1.79614746129363       -0.77506280688021
C           -0.52538076427944       -1.27333545353709       -0.60844744371691
C           -4.18936748596081        3.14443110817895        0.67860671252518
C           -4.89550993001866        2.86019675815397        2.00167451722927
C           -3.75879551520401        4.61005455925683        0.63092439571181
H           -4.77043378038715        0.97696369092701       -1.25952858054951
H           -6.91773229429102        0.25709743703115       -1.90730543156103
H           -7.14157632647169       -1.21588719482079       -2.88323688692713
H           -5.62751245731852       -0.29036006188078       -3.01791226025769
H           -5.24422044736251       -3.59588067529991        2.56919895037146
H           -5.55698552178296       -4.87610994850513        1.37122617042719
H           -3.89635834951606       -4.27871752897279        1.61578639023839
H           -3.46543110023510       -2.06815111627586        2.37569951558918
H           -2.55477983273170        0.17749674482109        2.29581015866899
H           -3.20283573764584        2.64300098586000       -1.65692795058164
H           -1.76252845053796        3.30958594634860       -0.88525208675073
H           -2.15071980617078        0.35675724648845       -1.51943135921340
H           -1.38608553336652        1.52449151339225       -2.59689359424739
H           -1.01947506844683        1.70207649011357        1.16544891814936
H            0.41669013546972        1.94468964164548       -0.86307267816427
H            1.86957536336392       -1.15333551876037        0.24241532042455
H            2.16630411704436        0.64782890728362       -0.07022031860762
H            4.16377836707273       -0.44611783989778       -3.42245956107326
H            3.95462181093259       -2.10113516688725       -2.65355573183272
H            5.83868668501441        1.10337245665066       -2.56093525317087
H            7.68710180693064        1.59777596481446       -1.03429719106178
H            8.58507122484012        1.99406402941077        1.14716557529331
H            9.78375001607647        1.27550828404769        0.02541505505337
H            9.94361323573578        1.03353593521405        1.78149945899990
H            7.22283973623426       -4.07545616867856        2.06226232488130
H            5.66121665645781       -3.56109218198470        1.39283244724101
H            6.92210061916069       -4.22171415542078        0.31088969162052
H            5.32779267397001       -2.73587352748344       -0.73815893847347
H           -0.78337708655541       -1.52259116115191       -1.63980570061258
H           -1.43773201202806       -1.13132872858751       -0.02493130040940
H            0.04078759559047       -2.10435881813152       -0.19279437911846
H           -4.91245098851547        2.97913951886640       -0.13011772681635
H           -4.20631192902666        3.01000859904438        2.82552001110080
H           -5.26801982277557        1.83895200869603        2.03322028493959
H           -5.73766289809246        3.53861632609929        2.11947102835170
H           -3.04021747276671        4.81190096794261        1.41863977156121
H           -3.32085311740679        4.87427070986950       -0.32845948695356
H           -4.63043369458666        5.24304847734613        0.78723926326480
H           -1.11941705844300        3.06455915643136        3.01209309610579
