72
 energy: 38.074530746836 xtb: 6.6.1 (8d0f1dd)
N           -1.81642556484964        2.95639560783275        2.39633559614819
C           -1.78684179493584        2.25815516459523        1.35407177219240
C           -2.92775381289153        2.12600932653828        0.38086437969788
C           -3.49045799689766        0.71403095532354        0.44380384630092
C           -4.42466813170953        0.28715547223532       -0.50366396086106
C           -4.97008890417801       -0.98269420315999       -0.46201342186928
O           -5.89086490777652       -1.47140145610804       -1.33910333014277
C           -6.40945177587698       -0.61299485995899       -2.32235996816996
C           -4.57208303933496       -1.88158108496432        0.55372680418384
O           -5.15699677650866       -3.11150737452208        0.51225682774082
C           -4.86156885901235       -4.02811870774034        1.53498222249240
C           -3.65061543187098       -1.45704705328499        1.49224442736632
C           -3.11878539101187       -0.17303149979815        1.43648671078369
C           -2.31646936138149        2.38262291425585       -1.01684088429506
C           -1.45589242999572        1.23838691992458       -1.58714098038638
C           -0.11860444595715        1.05478433333633       -0.95024540716311
N            0.46112848035957       -0.10986197278962       -0.69613888383701
C            1.76930249467302       -0.27219407756555       -0.47968631209989
C            3.97135031610750       -0.95967018767605       -2.25962693689087
C            5.08277537463956       -0.72407383638449       -1.49264286460846
C            5.78136329881798        0.48819535724294       -1.59127679494821
C            6.90800437500864        0.70785489120843       -0.84609911123399
C            7.37131415632833       -0.24922433278004        0.04640878554381
O            8.48215862134042       -0.13147849951731        0.82058193088990
C            9.20418387693237        1.06546471031478        0.75715971958429
C            6.67887452343777       -1.47973102718708        0.16203656078962
O            7.23960097668555       -2.37307548129574        1.02799456580488
C            6.61841922323806       -3.62233618295999        1.18189482343307
C            5.56289005996286       -1.70208797549505       -0.59027601844531
C           -0.36999294547533       -1.29864539628756       -0.64499834028495
C           -4.09051561449381        3.12293542374222        0.64202379575304
C           -4.77000330923488        2.83394666086488        1.97899840512258
C           -3.64446335091139        4.58261244480819        0.60244698092139
H           -4.73592774161296        0.96779159433993       -1.27928851300690
H           -6.89378456431660        0.26152301686185       -1.87593764996107
H           -7.15413573665762       -1.19855581039395       -2.85920995874371
H           -5.63702566446605       -0.28043794915609       -3.02455164460368
H           -5.12791307398395       -3.63177247534979        2.52039143453027
H           -5.46972975000451       -4.90719193883446        1.32630932413728
H           -3.80365354521246       -4.31287324947909        1.53329156168055
H           -3.33810488088803       -2.11394132739250        2.28846069139289
H           -2.42344416469981        0.13346221431778        2.20227424248909
H           -3.13548958453100        2.55951108214945       -1.71668416053287
H           -1.72042963151274        3.29471480637121       -0.98145186337541
H           -2.03690679943646        0.32031637903960       -1.54342750347002
H           -1.30176530958787        1.47826599366813       -2.66538672860508
H           -0.90511492432124        1.67613886360542        1.01768704575174
H            0.52607029512942        1.92237180674492       -0.94360069512992
H            2.11822832549528       -1.13460808521751        0.06559357916874
H            2.34510929769072        0.61006517313602       -0.25545331045530
H            3.70072541159404       -0.27919186625703       -3.02967412799975
H            3.52979387239886       -1.92772103222916       -2.29176875102679
H            5.42602518262217        1.24400437741928       -2.27089504195742
H            7.44499705583689        1.63086153770393       -0.97978252955203
H            8.59864815358117        1.92558458298087        1.06287916520762
H            9.61169268298532        1.24969957769954       -0.23845994010236
H           10.02700772520601        0.94476128115198        1.46001325740933
H            7.20040383436819       -4.13937689668204        1.94488303534040
H            5.58550941737882       -3.52930516486481        1.50711073163096
H            6.64037751650270       -4.20144437571680        0.25390448845899
H            5.01879589314847       -2.63007320302151       -0.51989198675199
H           -0.63056012066845       -1.60827906258797       -1.65355240686165
H           -1.27521474096307       -1.08130766312380       -0.05935624475888
H            0.19101179144227       -2.12339472417377       -0.18435174115015
H           -4.82789081828825        2.97584388833103       -0.15732191581475
H           -4.06274711016650        2.97665448363614        2.78746813136697
H           -5.14423368446539        1.81359733547738        2.01442800988279
H           -5.60565017296309        3.51417330762893        2.12686162362737
H           -2.90114997871669        4.76135966207356        1.37149295705555
H           -3.23295258885478        4.85073435505034       -0.36660424109650
H           -4.49950142194508        5.22843343020270        0.79512512470535
H           -0.95549304049934        2.96901142961355        2.93626419241800
