72
 energy: 26.022649969689 xtb: 6.6.1 (8d0f1dd)
N           -1.70078690904955        2.91906600577975        2.33427301269688
C           -1.70304636775425        2.21120518068058        1.29628264870198
C           -2.86146915300567        2.10274585890756        0.33779823226610
C           -3.43060205760397        0.69339913703935        0.40317116200683
C           -4.38385979239911        0.27337855431376       -0.52739371397729
C           -4.93040129627454       -0.99622608488566       -0.48421573653810
O           -5.86947786926757       -1.48063832146951       -1.34898410116528
C           -6.40480895907867       -0.61261449860139       -2.31390843277662
C           -4.51480541100726       -1.90224798730601        0.51623712759745
O           -5.10449785673311       -3.13307984198392        0.47692516854998
C           -4.79571223596715       -4.05215122570621        1.49279528871619
C           -3.57414850114957       -1.48469235051766        1.43909089706208
C           -3.04105879937470       -0.20166693002964        1.38157895142412
C           -2.27155121228304        2.35321573552593       -1.07361653023087
C           -1.38202453726077        1.22743552840424       -1.63707297669286
C           -0.03577288779799        1.05971167885457       -0.98458245744246
N            0.61445462088018       -0.13397605337427       -0.74991861832644
C            2.03865915074739       -0.27638737351197       -0.58091535180376
C            3.48179187205805       -0.78522157557792       -1.86442201453788
C            4.80216789122811       -0.61641255779098       -1.26234585627900
C            5.52223672422488        0.56196172860821       -1.41661921522185
C            6.72966866682149        0.74686886070104       -0.76933837805208
C            7.24700131673202       -0.24129381802766        0.04949615565925
O            8.42745500512141       -0.16510510871515        0.72486305701034
C            9.16912486251873        1.01850064923418        0.61066334598024
C            6.54248691454483       -1.45395348251904        0.19781917106876
O            7.14608671418094       -2.38000913665994        1.00250595333638
C            6.51860727870030       -3.62188031368292        1.17052328609064
C            5.34690249975533       -1.62775329998799       -0.46008991094802
C           -0.23472599967704       -1.31160597276469       -0.65642168228286
C           -4.01617641661939        3.10605140814252        0.61993676201697
C           -4.67912915536834        2.81496551322576        1.96489524140940
C           -3.56130424324693        4.56285023541606        0.58397418153526
H           -4.71039990583442        0.96019660669120       -1.29104378295454
H           -6.87742131573296        0.26115555969605       -1.85276726124285
H           -7.16176435430322       -1.19239660762510       -2.83944081084704
H           -5.64619766389929       -0.27618379234927       -3.02916010648966
H           -5.04546445498747       -3.65727241758751        2.48366777838370
H           -5.40890833536947       -4.92965379993352        1.29108462609959
H           -3.73815882401485       -4.33858759136928        1.47466559401741
H           -3.24818119294063       -2.14762824724296        2.22473520454569
H           -2.33070182570387        0.10068928020182        2.13456061288132
H           -3.10085458193931        2.49972559384024       -1.77248007499189
H           -1.69400653792147        3.27635784136475       -1.05194055140832
H           -1.95212543754042        0.30412119202340       -1.57500398337125
H           -1.21866830100028        1.45006991491081       -2.71473598304705
H           -0.82510233943453        1.65006297545088        0.90106491635126
H            0.58670121262692        1.94655289271960       -1.00345703468473
H            2.21769527013548       -0.99158309065981        0.24361623624178
H            2.38235389555020        0.69161666467620       -0.19094684811195
H            3.37113203240892       -0.17012041212340       -2.73796670076964
H            3.24154261111266       -1.81296818930910       -2.05113870202596
H            5.14078218592152        1.35161055737362       -2.04691000963181
H            7.27021307369835        1.66970433046614       -0.91349746072609
H            8.61294587022627        1.88951145680870        0.97817518691716
H            9.48463084554273        1.20649256757133       -0.41776839607841
H           10.05528324263926        0.86806044123240        1.22754233157381
H            7.15783143427279       -4.18540771217382        1.85134916372256
H            5.52745865052252       -3.51538099174112        1.60419597020250
H            6.43538213650669       -4.16427658555858        0.22271956794884
H            4.80151477428700       -2.55303836358306       -0.35724539911139
H           -0.50237436994890       -1.64664619704949       -1.65976127870677
H           -1.14928536354046       -1.08606466881594       -0.08249393096034
H            0.31661239986201       -2.12505030911502       -0.16514066314285
H           -4.76518029089795        2.96983977115187       -0.16961488781404
H           -3.96044013977558        2.95350625397103        2.76240515387869
H           -5.05514717413472        1.79539104645847        2.00242522918826
H           -5.51039200204133        3.49705617477073        2.12884629646679
H           -2.80144133149488        4.72567538044920        1.33921041559872
H           -3.16776838753853        4.83460918471021       -0.39103401966263
H           -4.40537518910434        5.21612332102188        0.79978621369811
H           -0.83657652211419        2.90029038759331        2.86661195661865
