72
 energy: 37.791050434486 xtb: 6.6.1 (8d0f1dd)
N           -1.87177448845074        2.99543666256331        2.40986982959186
C           -1.83924903269377        2.26903964997762        1.38839822152566
C           -2.96931950286004        2.13442321035267        0.40731906032745
C           -3.52770152048173        0.72185724418782        0.46744868129128
C           -4.45026740872767        0.29324821442558       -0.49053930080415
C           -4.99518939047702       -0.97627866981674       -0.44909891185379
O           -5.90605554553631       -1.46895572081419       -1.33410413285001
C           -6.41275098357566       -0.61437283061000       -2.32705048808304
C           -4.60678797752064       -1.86985884024892        0.57586120789531
O           -5.18928664112529       -3.09846814761493        0.53372083473525
C           -4.90137023067350       -4.01424233506375        1.55986360829760
C           -3.69687306985359       -1.44222402278719        1.52381302466766
C           -3.16552342136022       -0.15838734982896        1.46954215162610
C           -2.34620609166925        2.39929175904425       -0.98091690358308
C           -1.50432077131185        1.25216774491495       -1.55843668818156
C           -0.18035961944970        1.07270652206488       -0.91060170483977
N            0.37285120184704       -0.09757736786748       -0.64539743444840
C            1.65388006708072       -0.26433274159942       -0.36811736525301
C            4.18750544493866       -1.04161361147202       -2.44250763496154
C            5.24202596373986       -0.78403737901696       -1.61957650028766
C            5.93014110803411        0.43866531646674       -1.69608528998170
C            7.01236321136767        0.68144105709638       -0.89529551526184
C            7.44114720211575       -0.25648391946529        0.03499575630225
O            8.49012050991935       -0.10413446509378        0.88425403589411
C            9.21566092987944        1.09326825153653        0.84390459637599
C            6.75740596698914       -1.49568422362148        0.13554446803699
O            7.28240442240324       -2.36173896608665        1.05193032167272
C            6.67460339474777       -3.62180865764455        1.18953023405195
C            5.68821097737051       -1.74283592221362       -0.67493833389096
C           -0.44562790593239       -1.29351802321303       -0.63560232769365
C           -4.13308676869775        3.13217825248377        0.65761575287600
C           -4.82390354288636        2.84514405329088        1.98841177045560
C           -3.69311337004931        4.59390622839352        0.61475348667900
H           -4.75173378405130        0.97217600098296       -1.27139718433013
H           -6.90413492463488        0.26069845990436       -1.88952249399534
H           -7.14846170820055       -1.20446291109002       -2.87045412446400
H           -5.63243001820398       -0.28485308493443       -3.02189336700084
H           -5.17787456629550       -3.61732133539634        2.54186140745061
H           -5.50677302938446       -4.89359365143125        1.34531278172752
H           -3.84332443274065       -4.29810904537090        1.56838500576888
H           -3.39269998989190       -2.09485887049517        2.32630749621313
H           -2.47942627305248        0.15175060336247        2.24268216454130
H           -3.15748956770727        2.59701003310429       -1.68162120688741
H           -1.73394836504523        3.30075487401882       -0.93447419784181
H           -2.08684734235525        0.33463743354137       -1.52703770874773
H           -1.32990843585464        1.49863997089534       -2.62284579536600
H           -0.95510877178468        1.69338260171108        1.06925090273581
H            0.48080189451892        1.92412296273889       -0.90647856355949
H            1.99688502641570       -1.17009984264614        0.08351869482181
H            2.25029791367241        0.61089719021049       -0.21027882475848
H            3.89737070671528       -0.34730963916485       -3.20039583568741
H            3.71221967329253       -1.99883890319619       -2.44455677989612
H            5.59674730621872        1.18011170672169       -2.40129624291402
H            7.54914274293420        1.60732226950574       -1.01464849147584
H            8.58715182132594        1.95497222090636        1.09995704588656
H            9.68814059463479        1.26071204506384       -0.12705779508830
H            9.99203621870547        0.98429006032446        1.60047187392790
H            7.21737715009256       -4.10977705152429        2.00071810998681
H            5.61970656520762       -3.54127225038225        1.44368069553345
H            6.76588634541207       -4.21624045401637        0.27434158572686
H            5.14867873889093       -2.67381879558966       -0.61705865266267
H           -0.70480795256033       -1.58035631582303       -1.65246959774835
H           -1.34954365196973       -1.10230499118569       -0.04634049254249
H            0.12335743731434       -2.11902448110221       -0.19782844338058
H           -4.86405376746692        2.97570895233707       -0.14522548930054
H           -4.12402705355891        2.99056559723470        2.80372375317000
H           -5.19759908916891        1.82472294506637        2.02204581914498
H           -5.66242665062489        3.52444229091361        2.12351559092979
H           -2.96025000045931        4.78319498318547        1.39215362818582
H           -3.27047055689616        4.86115609393996       -0.35009383915762
H           -4.55582763370959        5.23366135950740        0.79247494899812
H           -1.02419399417287        3.01150307616789        2.97642554355954
