72
 energy: 37.193706313832 xtb: 6.6.1 (8d0f1dd)
N           -1.93715865046689        3.03793147398491        2.43593072458230
C           -1.87887517181406        2.29278380162766        1.42778878202828
C           -3.00373611678171        2.14937966871766        0.43368481782280
C           -3.56207950843235        0.73564013414550        0.49221727693893
C           -4.47398519600364        0.30086813527986       -0.47423266612897
C           -5.01900847947740       -0.96908528996350       -0.43500068627927
O           -5.91766829396632       -1.46920182922812       -1.33214648570887
C           -6.41553389790326       -0.61812579456186       -2.33205487351994
C           -4.64218983958551       -1.85802000968172        0.59792766177875
O           -5.22272311360925       -3.08954932088603        0.55260780092990
C           -4.94179649059299       -4.00092912783025        1.58393659644675
C           -3.74404981682663       -1.42519262871972        1.55508152487032
C           -3.21278321087411       -0.14109821108283        1.50231109375189
C           -2.38122144580851        2.41758770240786       -0.95664429049992
C           -1.55051773230654        1.26686227454200       -1.54128244779530
C           -0.23248028628272        1.09116875707348       -0.88054039963998
N            0.30838222192787       -0.07912498827549       -0.57502712837305
C            1.56897177501097       -0.23355432668612       -0.20747041107142
C            4.39621087096611       -1.13087980702473       -2.62060739552175
C            5.40187633424161       -0.84119499031535       -1.73392833270676
C            6.08061880159417        0.39749193413350       -1.78483487286428
C            7.12038199199487        0.66185859463049       -0.93558837822805
C            7.51400251621902       -0.26237259158938        0.02839533044184
O            8.51008042406879       -0.08495152053331        0.94029237988337
C            9.23044134526388        1.11894429381506        0.93011015815442
C            6.83677270493543       -1.50779293863296        0.11149900049006
O            7.31562273597328       -2.34894022234511        1.07906232603317
C            6.72423056138554       -3.61863733885824        1.19786133391005
C            5.81431151125116       -1.78358943173051       -0.74957047674880
C           -0.50736141981054       -1.27825329258498       -0.61903792880317
C           -4.17500045729101        3.14142899541159        0.67346166302613
C           -4.87764784471130        2.85623837667784        1.99839880483644
C           -3.74214369643625        4.60576146599923        0.62711896219952
H           -4.76569696609289        0.97576257475031       -1.26251972820935
H           -6.91430832194825        0.25777372611648       -1.90331775873794
H           -7.14375276124353       -1.21256486523222       -2.88121159265065
H           -5.62818330363658       -0.28881423492452       -3.01955703229696
H           -5.22777740785486       -3.60151239417021        2.56224670491803
H           -5.54444444460280       -4.88087533653142        1.36466564246813
H           -3.88322200605294       -4.28317347349850        1.60333318136311
H           -3.44787525205604       -2.07495364238387        2.36335412737948
H           -2.53614121305471        0.17071750567602        2.28293045235141
H           -3.18892235811642        2.63227234710000       -1.65883519385689
H           -1.75070010000238        3.30796458161442       -0.89419982599507
H           -2.13582491444072        0.34990801881638       -1.51649940809019
H           -1.36648470509957        1.51682991112258       -2.59375557207865
H           -1.00226497808105        1.69769026977390        1.13943078992007
H            0.43360331277564        1.93916325187005       -0.87103455438044
H            1.89863550078634       -1.16442708050159        0.19971692060013
H            2.18530028354131        0.63544573999400       -0.10593231489815
H            4.09269127466245       -0.42236268657981       -3.36982708540526
H            3.89129283736303       -2.08055558892385       -2.60302869560633
H            5.77402607670526        1.12093482341103       -2.52400851027614
H            7.65240373969755        1.59550211427968       -1.03864930650445
H            8.58246000720762        1.98268121955158        1.13855222438543
H            9.76384521137686        1.27458500704895       -0.01355870993908
H            9.96077419906505        1.02302215839294        1.73617480869527
H            7.22202434075835       -4.07870833684929        2.05357986476373
H            5.65025043874674       -3.55830235030608        1.38571741783300
H            6.88638545226249       -4.22602054841297        0.29940368469304
H            5.28100948929688       -2.71997599693801       -0.70960235950843
H           -0.76523610972538       -1.53673024914960       -1.64831196388270
H           -1.41623042305559       -1.12518087292961       -0.03115891213849
H            0.06199448509199       -2.10603753886082       -0.20064537213551
H           -4.89962098900413        2.97796608909410       -0.13436416732652
H           -4.18600991679220        3.00461936591697        2.82043315098334
H           -5.25048118400803        1.83524225401068        2.03047674585133
H           -5.71892168382248        3.53465433314644        2.12138685506622
H           -3.01979010187390        4.80445083640080        1.41213037360569
H           -3.30814315911853        4.87041540958153       -0.33374222053708
H           -4.61141190508052        5.24080055190220        0.78909373213675
H           -1.09773332762372        3.05550801658090        3.01281510504788
