72
 energy: -6.195377060036 xtb: 6.6.1 (8d0f1dd)
N           -1.50906785486181        2.78720939850210        2.24409863218273
C           -1.56254306266613        2.15510701922882        1.16053601246466
C           -2.75589260998839        2.06362317846372        0.25254108954074
C           -3.32535426177976        0.65265593854549        0.33193537166000
C           -4.31046375898028        0.24870760774245       -0.57182376434865
C           -4.85646809784898       -1.01951194881365       -0.52604630877898
O           -5.82384551911553       -1.48883071208898       -1.36321846008265
C           -6.39650523997810       -0.60986712021424       -2.29697665104294
C           -4.40953088184332       -1.93823517889664        0.44979850094849
O           -5.00306089658204       -3.16441617733533        0.41623438094676
C           -4.67707153611944       -4.09524181259838        1.41601701186140
C           -3.43711269262900       -1.53699225983644        1.34521097231968
C           -2.90178399056336       -0.25471608941530        1.28571633313220
C           -2.20223017623806        2.30573972478523       -1.17647026813480
C           -1.26906784334618        1.18617932560598       -1.66821425464234
C            0.00280730926247        1.12758795802569       -0.89473673890178
N            0.63806365166052       -0.05936845457708       -0.57793182926680
C            2.01829593731576       -0.06388194331376       -0.20420731932564
C            2.98008593527419       -0.56186730311290       -1.32751691596328
C            4.40045508395393       -0.44981623346021       -0.87747194859182
C            5.11834939404457        0.71444876112907       -1.07945407470359
C            6.42105408786574        0.83307342451596       -0.61924227068328
C            7.02247333204876       -0.21268557256141        0.05662467017571
O            8.29257655773150       -0.20789529038408        0.54671621967348
C            9.07990745460488        0.93707727022915        0.34842910188433
C            6.29748227422057       -1.40610904424686        0.27170796227734
O            6.97239546780017       -2.38325247558460        0.93911985943124
C            6.33574229482107       -3.61536477011532        1.15419946782816
C            5.00152308386704       -1.50635167225788       -0.19302621542275
C           -0.06924667762571       -1.30745202285376       -0.62147625960712
C           -3.88280355423586        3.07965086836420        0.58640086632849
C           -4.51350209690130        2.77925346722616        1.94487399624563
C           -3.41034431661336        4.53188196367276        0.55229620706358
H           -4.66349734661808        0.94665848374211       -1.31318669466754
H           -6.85183547186043        0.25890201262786       -1.80972125202158
H           -7.17222004831935       -1.18631786706658       -2.79880227822258
H           -5.66549268583854       -0.26952502757215       -3.03860823299677
H           -4.89950226505542       -3.70894098421704        2.41648160686495
H           -5.30341516852627       -4.96398507494629        1.21867987615862
H           -3.62346931897276       -4.39172021435021        1.36734550162568
H           -3.08790640514970       -2.21126948611327        2.11122360290390
H           -2.16404093243480        0.03179486370134        2.01916374373886
H           -3.03366333131233        2.39588758472085       -1.87701115205537
H           -1.65500289929511        3.24948151026058       -1.18880075307332
H           -1.81177992613133        0.24314223633220       -1.62225611987833
H           -1.02615413476479        1.38514215199886       -2.72054637037462
H           -0.69543475662196        1.65035401749580        0.66316483274250
H            0.64720820776761        1.98936999549945       -0.95377323808248
H            2.13451043951852       -0.70038652788622        0.68210829214137
H            2.30408576318354        0.95292461199939        0.08289875823271
H            2.82566848537191        0.04309140053032       -2.22176237980012
H            2.73664946533208       -1.59745823465331       -1.56454992116902
H            4.67166495525229        1.54177203180971       -1.61017676481204
H            6.95949077682084        1.74974997898562       -0.79994812764957
H            8.64638366034355        1.81848770501350        0.83327239412268
H            9.22942213280922        1.14700371355943       -0.71537605943347
H           10.04023642757770        0.70957527765736        0.80775837608542
H            7.06590044054225       -4.23329464758509        1.67444003904464
H            5.44402392503495       -3.50781562401380        1.77939838631888
H            6.06141508670932       -4.09993881435296        0.21135806582824
H            4.43984255399426       -2.41501498079315       -0.04075840600862
H           -0.24972286905482       -1.62731779740206       -1.65345997731678
H           -1.03252257257749       -1.22926941106368       -0.10540605529985
H            0.53465195578818       -2.06367999853794       -0.12349308571856
H           -4.65503407839466        2.95839052548847       -0.18200678086706
H           -3.77824963135686        2.90784752048553        2.73155400301624
H           -4.89284807133511        1.76089973059854        1.98077573803555
H           -5.34070352373979        3.46162001590141        2.12549062474705
H           -2.61999923928091        4.68853152187538        1.27956621272445
H           -3.05193062834195        4.81710072142531       -0.43339330201732
H           -4.24151143629735        5.18617197864141        0.80628378494865
H           -0.61867503384693        2.78061141308956        2.73835524796381
