72
 energy: 11.659619024072 xtb: 6.6.1 (8d0f1dd)
N           -1.65440814462187        2.89736332572493        2.30923355303599
C           -1.66882974399261        2.19528816766072        1.26679946318784
C           -2.83624346366569        2.09384682607843        0.31904035005484
C           -3.40698993473735        0.68503189155913        0.38707656759967
C           -4.36773968045383        0.26813087224389       -0.53685159726234
C           -4.91402126643455       -1.00131942747669       -0.49321170079113
O           -5.85942202647742       -1.48328793489088       -1.35287570738292
C           -6.40302675861165       -0.61218973674694       -2.31020823921501
C           -4.49163959446012       -1.91003148995988        0.50135611561159
O           -5.08242172473895       -3.14094323931450        0.46293628784725
C           -4.76937372502439       -4.06157485962692        1.47567766741903
C           -3.54401186301419       -1.49575087029279        1.41822924105849
C           -3.01049611635211       -0.21300065587601        1.36012203876088
C           -2.25452116217371        2.34204957135607       -1.09694886999589
C           -1.35213229164195        1.22120798332479       -1.64851569943482
C           -0.01912937285137        1.07952630268097       -0.96371366599105
N            0.65370257078831       -0.14220186691555       -0.74126796798991
C            2.11320267130050       -0.26006899383749       -0.54679413039584
C            3.32424830502008       -0.72483306090781       -1.71685241061101
C            4.70405944168238       -0.57537794769796       -1.17050873503199
C            5.42615332032131        0.59432187716244       -1.34305348925753
C            6.66012070098599        0.76493277660735       -0.73710467039147
C            7.19732018379545       -0.23594437189576        0.05092342089538
O            8.39871444727768       -0.17571946254273        0.68547816729576
C            9.15086405083412        1.00035315533514        0.55250452670098
C            6.48804272806863       -1.44390838374080        0.21323849088670
O            7.10685846090015       -2.38048797539259        0.98997480325452
C            6.47735490691145       -3.62066007885683        1.16659103447840
C            5.26542814124275       -1.59930386605743       -0.40334107916472
C           -0.18993891285732       -1.32066513916141       -0.65255138826081
C           -3.98638817359789        3.09968580068183        0.61182846388484
C           -4.64243513929250        2.80727472597227        1.95999145758099
C           -3.52802502626511        4.55552294231166        0.57705241684910
H           -4.70025657865042        0.95728949150930       -1.29581091868783
H           -6.87159590406059        0.26070744936922       -1.84315811928791
H           -7.16458017342045       -1.19060706837616       -2.83072846424942
H           -5.65050536055188       -0.27430827876119       -3.03112175353407
H           -5.01289568243285       -3.66810034043358        2.46874727288672
H           -5.38506964750397       -4.93778208856265        1.27582346260751
H           -3.71235994129743       -4.34964361467788        1.45097794643711
H           -3.21272083188928       -2.16136833839027        2.19943598667512
H           -2.29379141567944        0.08650761346677        2.10815678148046
H           -3.08580409856998        2.47553625114155       -1.79573135277753
H           -1.68462353631256        3.27020168646370       -1.08194000867987
H           -1.91775711873503        0.29476360825940       -1.58653550665647
H           -1.17504311732551        1.43548730118117       -2.72364217287756
H           -0.79293125197699        1.64522559140138        0.84720779358525
H            0.61269127356095        1.95744607740121       -1.03492828052290
H            2.22348516737468       -0.93080554895345        0.33123740430014
H            2.37536756069647        0.73535179579229       -0.13917562845839
H            3.24306841281121       -0.12416934398712       -2.61401654765062
H            3.12715111509974       -1.76139362870806       -1.94520761468371
H            5.03277311041456        1.39488516208396       -1.95132797243967
H            7.20065738091406        1.68708866954139       -0.88673924033736
H            8.61936206773798        1.87470413764058        0.94606686016436
H            9.42949109779534        1.19141507532675       -0.48584325893051
H           10.05618292166159        0.83387358910419        1.13500532642451
H            7.13794120028445       -4.19785920332372        1.81350978726873
H            5.50447158270168       -3.51286049352970        1.64193749210761
H            6.35313722737205       -4.14967903770946        0.21630422061642
H            4.71840220366856       -2.52193593716835       -0.28827541387160
H           -0.44766854202868       -1.65322171951206       -1.66029673393452
H           -1.11657379305937       -1.11573400111372       -0.08846166551906
H            0.36632230106578       -2.12166413470931       -0.15438806494466
H           -4.74057503418763        2.96771090481350       -0.17337430142843
H           -3.91935153823469        2.94385092563231        2.75395500829924
H           -5.01925948704808        1.78798520496398        1.99792039419543
H           -5.47237721530025        3.48979610543719        2.12917244904383
H           -2.76122651388080        4.71433170856209        1.32624163689480
H           -3.14200424259826        4.82968834205130       -0.40032826907670
H           -4.36863558117164        5.21017203342988        0.80179787689274
H           -0.78743912772349        2.87414214794697        2.83699961704989
