72
 energy: 6.800885347449 xtb: 6.6.1 (8d0f1dd)
N           -1.63191476542599        2.88387288951959        2.29792881635326
C           -1.65224247936365        2.18780590844652        1.25184085340526
C           -2.82399828945387        2.08932622469882        0.30961624358662
C           -3.39520702660381        0.68063397537066        0.37914018187570
C           -4.35958292476411        0.26539452297646       -0.54164060977458
C           -4.90580027429440       -1.00392911751703       -0.49774984414967
O           -5.85421297643910       -1.48445154062837       -1.35459509193647
C           -6.40209761676869       -0.61193018857538       -2.30823001169585
C           -4.47998076883122       -1.91405722980910        0.49399802596991
O           -5.07119537472528       -3.14463739065225        0.45603684806327
C           -4.75623625720493       -4.06633724230101        1.46717984118938
C           -3.52881034527902       -1.50144783253532        1.40782302399690
C           -2.99504550570222       -0.21880450366187        1.34944760082095
C           -2.24659584041952        2.33647542232949       -1.10853379371523
C           -1.33819034066054        1.21718019896507       -1.65250035329031
C           -0.01328942434659        1.08926913603164       -0.95155658514039
N            0.66178089356216       -0.13966342470008       -0.72617124771680
C            2.10848551335303       -0.23643604079241       -0.49955036779579
C            3.27137429584726       -0.69933633157415       -1.65587803534406
C            4.65991502676332       -0.55638198091392       -1.12738964982695
C            5.38110640407025        0.61187654627463       -1.30543661822124
C            6.62599617234961        0.77496204051860       -0.71972552247618
C            7.17253421153777       -0.23303754513398        0.05214362902647
O            8.38464565449704       -0.18084545986682        0.66595330654684
C            9.14133070249663        0.99134622203973        0.52320929649512
C            6.46097852652034       -1.43873074779566        0.22186631479556
O            7.08765198723400       -2.38118305905155        0.98398646265045
C            6.45667257012304       -3.62010464653591        1.16478108668387
C            5.22678241876782       -1.58584493722420       -0.37371034743504
C           -0.17124881880365       -1.32221356624244       -0.64931885050989
C           -3.97144330857832        3.09661665965948        0.60788454189314
C           -4.62401048884694        2.80329080612658        1.95753691733833
C           -3.51112090565378        4.55191323577083        0.57346072769445
H           -4.69507383950459        0.95575427266501       -1.29817670007820
H           -6.86860709077310        0.26047899242803       -1.83818419331197
H           -7.16590837866197       -1.18976736683221       -2.82611994116662
H           -5.65268666324631       -0.27343677788424       -3.03205916176072
H           -4.99665669644974       -3.67357895983206        2.46129213766398
H           -5.37336138265128       -4.94168190800456        1.26806136131216
H           -3.69959304422012       -4.35542252353277        1.43914061640790
H           -3.19482861441343       -2.16837555478456        2.18676342467599
H           -2.27511903170460        0.07911792065131        2.09503306487393
H           -3.07854615583830        2.46323428970732       -1.80733487855419
H           -1.68042272627139        3.26711837065030       -1.09724623133432
H           -1.90078355502282        0.28851071834879       -1.59178475584045
H           -1.15287319124425        1.42794430841845       -2.72579811916407
H           -0.77719194721392        1.64421036366201        0.81989319982840
H            0.62505346189185        1.96162639216557       -1.04326099512953
H            2.21681609959385       -0.89834784286402        0.38353049327741
H            2.36423442879470        0.76503808519055       -0.10724369212922
H            3.18244796515546       -0.09969919850664       -2.55542605976283
H            3.07102079172942       -1.73629712906853       -1.89020951495235
H            4.98024612628457        1.41628595833762       -1.90333151335732
H            7.16650127629863        1.69650433045914       -0.87251474136329
H            8.62259890472818        1.86720228755456        0.92974001981709
H            9.40103184225542        1.18443436260200       -0.51976852214945
H           10.05595963667254        0.81700033563563        1.08807720128648
H            7.12759647826306       -4.20404428043852        1.79426029369293
H            5.49363200257300       -3.51190533022395        1.66113052040678
H            6.31147839149840       -4.14246048311191        0.21394104826575
H            4.67777459355124       -2.50659827688205       -0.25399171296312
H           -0.41879399270059       -1.65309665341615       -1.66058398862423
H           -1.10419731730091       -1.13201173344839       -0.09179176976728
H            0.39035753469718       -2.11685254848194       -0.14959629722157
H           -4.72815724969659        2.96658969511337       -0.17507192894522
H           -3.89890286780131        2.93884216929877        2.74991862367736
H           -5.00121746578265        1.78413944003184        1.99546193316730
H           -5.45335944629250        3.48591794727904        2.12907583612373
H           -2.74093724785418        4.70925651056078        1.31960569346858
H           -3.12887139405344        4.82733586919726       -0.40509273249042
H           -4.35005802401468        5.20711093669033        0.80248513531428
H           -0.76297838706038        2.86043769972386        2.82258907929753
