72
 energy: 32.928522693610 xtb: 6.6.1 (8d0f1dd)
N           -1.72480657378992        2.92891563529157        2.34762300814642
C           -1.72066138261912        2.21913851925759        1.31116906974057
C           -2.87432045350875        2.10710474527651        0.34727178532320
C           -3.44247514108514        0.69744579458807        0.41126394423262
C           -4.39191153806229        0.27594403936059       -0.52269668772305
C           -4.93867831658274       -0.99367420272583       -0.47970432058929
O           -5.87466630477697       -1.47923410262567       -1.34688034029147
C           -6.40587500787785       -0.61286547808540       -2.31566140038586
C           -4.52648348349024       -1.89833652344649        0.52372180401927
O           -5.11556611181442       -3.12906566592052        0.48394249395028
C           -4.80894498145872       -4.04747887162355        1.50128470804251
C           -3.58931308843323       -1.47922042871200        1.44955302194974
C           -3.05636524539275       -0.19608012828298        1.39234042316998
C           -2.27964184387726        2.35779565907132       -1.06141752805479
C           -1.39596564912121        1.22767839165991       -1.62759464595261
C           -0.04254292058156        1.04778377354114       -0.99252838490672
N            0.59035980224973       -0.12728040129790       -0.74715118997855
C            1.99337912078035       -0.28664332830062       -0.59010807203156
C            3.58224428052313       -0.82102921704544       -1.94841189765089
C            4.85740577795927       -0.63796178766897       -1.30844511642106
C            5.57310131663650        0.54741081852195       -1.45291170948404
C            6.76489230442503        0.73894007518460       -0.78447231667981
C            7.27178337451037       -0.24383573836635        0.04917728664412
O            8.44113033686533       -0.15969464560909        0.74451896087297
C            9.17723624940977        1.02765079702599        0.63971539760794
C            6.56976312004785       -1.45938400753134        0.19114871627120
O            7.16619024928328       -2.38000535509273        1.00878897474412
C            6.54030397828361       -3.62305012602643        1.17266246496711
C            5.38956222316175       -1.64326632495922       -0.48684690548928
C           -0.25988306961789       -1.30775833018190       -0.65615662389298
C           -4.03111549302433        3.10913165135700        0.62400556017376
C           -4.69743399830482        2.81852818383039        1.96732765599506
C           -3.57801808684914        4.56645032405706        0.58754774363254
H           -4.71543351693668        0.96164403193404       -1.28861781208197
H           -6.88053521953011        0.26131856642073       -1.85751639326034
H           -7.16046946412318       -1.19346549331605       -2.84360102874830
H           -5.64428947278254       -0.27720893970488       -3.02815772881608
H           -5.06181303964305       -3.65200077864168        2.49107066429378
H           -5.42094717611130       -4.92553396167751        1.29848212683767
H           -3.75115979751915       -4.33318265750117        1.48641073633222
H           -3.26604627499581       -2.14080983232413        2.23740532841267
H           -2.34919480239185        0.10766339567091        2.14779726531112
H           -3.10743351817415        2.51106584485530       -1.76093755748856
H           -1.69847992140970        3.27880023778684       -1.03694369212059
H           -1.96909275509774        0.30592482205898       -1.56858425505456
H           -1.23864754182296        1.45631177461016       -2.70629010328920
H           -0.84107953551972        1.65485374552738        0.92692613675635
H            0.57566944001545        1.93855914158205       -0.99031069588979
H            2.20650826870603       -1.01997192972293        0.20421502062585
H            2.39195714395069        0.66899355349883       -0.22053873708764
H            3.43776465575289       -0.19243566843195       -2.80176042481901
H            3.29899092365483       -1.83888377196627       -2.10168430726028
H            5.19582394735034        1.32984721045677       -2.09462566551823
H            7.30528180189393        1.66197814630719       -0.92556765884565
H            8.60920527409134        1.89674066760383        0.99422402132298
H            9.51076274835437        1.21445256367255       -0.38335383552706
H           10.05322038537575        0.88504604934059        1.27347411742966
H            7.16909076408516       -4.17928260533339        1.86963165730458
H            5.54217283484791       -3.51835480740617        1.58794247859728
H            6.47659185275012       -4.17178890688612        0.22659808928145
H            4.84353340857752       -2.56896833554377       -0.39200334237850
H           -0.53017688553879       -1.64125366868722       -1.65893068378453
H           -1.17055646663131       -1.07937792757933       -0.07696606109987
H            0.29082317639856       -2.12789781153138       -0.17133100917370
H           -4.77754054046854        2.97073964335684       -0.16765153233788
H           -3.98096220486835        2.95800448274690        2.76664954296258
H           -5.07299180984140        1.79878288563738        2.00454710837050
H           -5.52940118359306        3.50032058060579        2.12858511860510
H           -2.82168098968230        4.73155791940154        1.34579443275972
H           -3.18075595079720        4.83724772682298       -0.38621488034688
H           -4.42395105041805        5.21879494816937        0.79890299851848
H           -0.86136461922225        2.91359778311899        2.88143399148422
