  72
        -99.26184613
 N         -1.8189229237        2.9973018378        2.3031008527
 C         -1.7002226038        2.2742359742        1.2901530982
 C         -2.8281116723        2.1129025322        0.2907816827
 C         -3.3925610156        0.7026115737        0.3427976579
 C         -4.4336528738        0.3645422824       -0.5245768256
 C         -5.0015941545       -0.8973340370       -0.5096064940
 O         -6.0196161476       -1.3084876034       -1.2948711863
 C         -6.6380376400       -0.3832521375       -2.1575936640
 C         -4.5065414678       -1.8748383021        0.3952304493
 O         -5.1124513900       -3.0794613475        0.3311116568
 C         -4.7061354286       -4.0955105885        1.2183740434
 C         -3.4774930692       -1.5293999577        1.2549543243
 C         -2.9300596509       -0.2513128202        1.2314878127
 C         -2.2213853024        2.4030519356       -1.1209993502
 C         -1.3421452063        1.2740215618       -1.6823013165
 C         -0.0248139272        1.1501776255       -1.0200360045
 N          0.5443786997        0.0079458783       -0.6418002269
 C          1.9306910403       -0.0125639455       -0.2397428434
 C          2.8576187915       -0.4097399764       -1.4060145325
 C          4.2952643042       -0.2817737917       -0.9872399743
 C          4.9624302598        0.9241317164       -1.1243008259
 C          6.2805277141        1.0576382090       -0.7155679752
 C          6.9571641485       -0.0152699892       -0.1547248136
 O          8.2336074055       -0.0019254451        0.2754434655
 C          8.9845822707        1.1843448006        0.1592283629
 C          6.2800130350       -1.2566978142       -0.0069474478
 O          7.0134341889       -2.2460618374        0.5433195554
 C          6.4411352764       -3.5220829584        0.7000861775
 C          4.9624024905       -1.3659517550       -0.4214187830
 C         -0.1304666280       -1.2614112360       -0.7658634303
 C         -3.9151500374        3.0960702535        0.5572070078
 C         -5.6869592482        0.7151021938        3.0365865756
 C         -3.7130677988        4.5505278763        0.5107840685
 H         -4.8066414921        1.1122757412       -1.2056655326
 H         -7.0405209196        0.4717018900       -1.6058630421
 H         -7.4559705964       -0.9248475040       -2.6285378074
 H         -5.9478800792       -0.0296377805       -2.9300890380
 H         -4.8598514244       -3.8024633726        2.2613777922
 H         -5.3349102381       -4.9533984346        0.9889824223
 H         -3.6565222708       -4.3650219684        1.0636341012
 H         -3.1002765309       -2.2441827590        1.9677647626
 H         -2.1516684203       -0.0085297984        1.9382129336
 H         -3.0459857464        2.5618420472       -1.8155486155
 H         -1.6479823360        3.3292852336       -1.0705198119
 H         -1.8964250182        0.3374526981       -1.6555891820
 H         -1.1575013354        1.5211362215       -2.7363573593
 H         -0.7871767651        1.7260722223        1.0032029092
 H          0.5820943968        2.0394102159       -0.9405695652
 H          2.0557219631       -0.7204073680        0.5832952579
 H          2.2182971038        0.9790556371        0.1159844750
 H          2.6573362283        0.2530273413       -2.2500516697
 H          2.6422551115       -1.4341930768       -1.7120490855
 H          4.4610370480        1.7720538572       -1.5661240194
 H          6.7756290861        2.0060364723       -0.8446012249
 H          8.5358814153        2.0008318285        0.7332652648
 H          9.0937291163        1.4888890930       -0.8860451003
 H          9.9645424247        0.9504966528        0.5707607949
 H          7.2217369421       -4.1399753103        1.1396693206
 H          5.5791283982       -3.4958902505        1.3745876679
 H          6.1412093999       -3.9486847252       -0.2622131256
 H          4.4421204429       -2.3056480580       -0.3206061625
 H         -0.2657604660       -1.5399064632       -1.8138693154
 H         -1.1106101357       -1.2198028367       -0.2844737602
 H          0.4625468385       -2.0302056277       -0.2770948197
 H         -4.9037886194        2.7184691246        0.7622154600
 H         -4.8175244043        0.6286029682        3.6502799708
 H         -6.0629761564       -0.1351859709        2.5127270369
 H         -6.2095145533        1.6445534359        2.9940764303
 H         -2.6646891670        4.8171116188        0.6266439823
 H         -4.0674590365        4.9642077709       -0.4442049477
 H         -4.2981097112        5.0372267852        1.2924972229
 H         -1.0178454292        3.0744761764        2.9224796540
