25
 energy: -42.102574633963 gnorm: 0.008836012820 xtb: 6.6.1 (8d0f1dd)
C            3.29978474146223        0.90222925418073        0.47092488500950
N            1.93002475848498        0.47371634975333        0.19927455515384
C            1.80487118701488       -0.53126781037872       -0.69756859454115
N            0.86789385432182       -1.47175680196966       -0.76410417585833
C           -0.26178466259683       -1.69270572403441       -0.02520123231377
C            0.93227562307662        1.11952669054385        0.92641926535369
C           -0.46248843422417        1.12520555801835        0.34804534869809
O            1.17996431981223        1.76842241732987        1.91197572892242
N           -0.75040139174391        1.92246455780070       -0.55869480833677
C           -2.04513626653197        2.16387519859907       -1.09086861439610
C           -1.20763343619438       -0.98118503926226        0.68956898964839
O           -1.40207975939443        0.28474568373084        1.01232792264676
N           -2.05293225175743       -2.03065598801747        0.84845772834261
C           -1.13259502275381       -2.92733666901656        0.14323832210263
H            3.86678335118088        0.10025262525093        0.94243051930183
H            3.78843408771529        1.20131295812131       -0.45608749858007
H            3.26209237507960        1.75271728904215        1.14922377966458
H            2.64693186286404       -0.66070455782612       -1.36476831178700
H           -2.31290394034905        3.18810316128740       -0.82869106827069
H           -1.96604225322239        2.11724648409036       -2.17603652228566
H           -2.81498739314765        1.47859674570146       -0.72732372787211
H           -0.71823449450366       -3.72207149458665        0.76415937654459
H           -1.56892154201721       -3.33985106504208       -0.76440266252544
H           -2.77083567219255       -2.21844608163647        1.52510302880851
H            1.04835187371191       -2.20419520005632       -1.44623061554189
