25
 energy: -42.164312901452 gnorm: 0.009982076982 xtb: 6.6.1 (8d0f1dd)
C            3.25692692010220        1.05651116194326        0.01986161846385
N            2.31073512034424       -0.02311042721049       -0.01850108279720
C            2.57777893756616       -1.32466741892925        0.00394178975882
N            1.42210108636790       -2.03583254535333       -0.01463712880943
C            0.39125515045802       -1.15144922219510       -0.04771716087874
C            0.94326481754210        0.13415679724094       -0.04996070113204
C            0.14314576962251        1.28758637449038       -0.06665200831025
O           -1.70235877833033        3.04332587492830        0.99687883917618
N           -1.16739739385426        1.02102787764296       -0.08384956297794
C           -2.07620582261906        2.18614792106860       -0.01536681146028
C           -1.79073500857079       -0.23403447624902       -0.12787267913867
O           -2.97821755131674       -0.37219481353625       -0.20591531509522
N           -0.93370031785605       -1.35425859434555       -0.08771088677370
C           -1.51221312774866       -2.68379421879975       -0.08283091132182
H            3.62546398574862        1.20335403607676        1.03674275318307
H            4.10121130352077        0.84569255878134       -0.63439096774461
H            2.75306878531495        1.96507294457371       -0.30389753805874
H            3.55727177229222       -1.75831996723844        0.03137407572771
H           -2.06934535174785        2.67251875116478       -0.99514347069600
H           -3.07830049897692        1.81495172574096        0.20807923365334
H           -0.96044033536708        3.60146926598197        0.71973233262995
H           -1.22409734152776       -3.21841418491335        0.82256300456232
H           -1.19517615944148       -3.24044112323951       -0.96522735691103
H           -2.59543905265573       -2.57256037623745       -0.10342152198460
H            1.36183460523273       -3.04449937978689       -0.00490692516357
