  25
        -42.10435205
 C          3.2335053155        1.1209578526       -0.0059228837
 N          2.2740554732        0.0490920520       -0.0126548447
 C          2.5393293141       -1.2543177208       -0.0196251488
 N          1.3830639977       -1.9580296761       -0.0146874961
 C          0.3485671791       -1.0708358792       -0.0036813429
 C          0.9039083358        0.2026532465       -0.0010122790
 C          0.1059664235        1.3914113561       -0.0067205090
 O          0.4888414715        2.5399339579       -0.0148442232
 N         -1.2970510680        1.0784848603       -0.0071947360
 C         -2.1510171364        2.1111865023       -0.0187782633
 C         -1.8658819573       -0.2287254621       -0.0084425912
 O         -3.0552973312       -0.3873395192       -0.0108990226
 N         -0.9796530439       -1.3039207101        0.0012702933
 C         -1.5162658849       -2.6522966055       -0.0154517999
 H          3.7846687965        1.1308245261        0.9353129833
 H          3.9409666017        0.9998093291       -0.8257807259
 H          2.7035955000        2.0662204128       -0.1160290403
 H          3.5193404823       -1.6879996334       -0.0305935677
 H         -1.7367698733        3.1024910951       -0.0329351748
 H         -3.2065830902        1.9138331968       -0.0225671369
 H         -2.8092252575        4.4101655907        1.9937578914
 H         -1.1557130806       -3.2139814569        0.8453550403
 H         -1.2416707778       -3.1597140934       -0.9409059557
 H         -2.6012389658       -2.5771668320        0.0377420721
 H          1.3148825248       -2.9656461660       -0.0235000682
