25
 energy: -42.483147191905 xtb: 6.6.1 (8d0f1dd)
C            3.22475359413174        1.05252430565137        0.18346129983580
N            2.30977632089671        0.07644127434470        0.07805545605481
C            2.56756406179351       -1.27951536997593        0.13147713086911
N            1.35888424555194       -1.98042628024156        0.23187516012377
C            0.36606236498773       -1.09168279274123        0.06588760270359
C            0.89538306991036        0.19632196987370        0.06518665908608
C            0.04851629008800        1.35642075800739        0.03371575063064
O            0.39010264288907        2.51665776804269       -0.00404153245896
N           -1.35723341781269        1.03379211533669       -0.05174001750431
C           -2.31386732746400        2.13916796409387       -0.08329579560605
C           -1.88096791257640       -0.22412623006182       -0.05613586895562
O           -3.07048799595559       -0.45916406124909       -0.07013700224123
N           -0.97520370967482       -1.31861975242810       -0.02475952260198
C           -1.53988977979610       -2.65193590530225       -0.09925232015120
H            4.24766012629830        0.72994055368136        0.37391659020524
H            4.78426236228457        2.18451065368801       -1.26503013685985
H            2.92842054141030        2.03206083293560        0.51845744716954
H            3.51196193974909       -1.72583713271385        0.33594537547671
H           -1.73024840900291        3.05416277228254       -0.06477814259678
H           -2.90757084884612        2.08393122652860       -0.99795508744044
H           -2.98873994179087        2.07819499572923        0.76983570042941
H           -1.28479093031821       -3.22622423403890        0.79226695289511
H           -1.21066530349972       -3.18345673933643       -0.99704071414827
H           -2.62569878392251       -2.54005556486186       -0.13847550396497
H            1.24685981921062       -2.97030599662280        0.09690169775845
