  25
        -42.10806870
 C          3.1552177864        1.0749082649        0.0077982473
 N          2.2825915852        0.0727225683        0.0107285943
 C          2.5458270049       -1.2546556066        0.0235921988
 N          1.3787466076       -1.9551620369        0.0216905953
 C          0.3495569582       -1.0677123145        0.0104207866
 C          0.8963653260        0.2047923204        0.0029344065
 C          0.0732003146        1.3929252599        0.0001405618
 O          0.4729969192        2.5320487295       -0.0089536057
 N         -1.2842651779        1.0641504854        0.0128584324
 C         -2.2392143779        2.1637811825        0.0337197617
 C         -1.8547389665       -0.1952488301        0.0088934330
 O         -3.0413707533       -0.3648659432        0.0124342083
 N         -0.9732442017       -1.2988943532        0.0009035739
 C         -1.5244494506       -2.6388856707       -0.0039049264
 H          4.2058893867        0.8594336858        0.0261100480
 H          5.2032038161        2.1500339121       -1.8968498980
 H          2.7800415542        2.0822416535       -0.0029135420
 H          3.5240722261       -1.6881131544        0.0379368640
 H         -1.6821696808        3.0971603573        0.0005518558
 H         -2.9084540546        2.0889962338       -0.8232902127
 H         -2.8398063866        2.1143279328        0.9423162757
 H         -1.2001160111       -3.1901180778        0.8791507295
 H         -1.2280967138       -3.1703800663       -0.9088540608
 H         -2.6102089693       -2.5467645136        0.0138026610
 H          1.3126736760       -2.9618617015        0.0389189584
