  72
        -99.36534507
 N         -1.6675829879        2.7654802570        2.4682940767
 C         -1.6430655692        2.0961254150        1.4148143472
 C         -2.8071579291        1.9438816801        0.4745602435
 C         -3.2604252309        0.4919300548        0.4540489598
 C         -4.1796630894        0.0677398116       -0.5076106684
 C         -4.6488800150       -1.2348997003       -0.5355983671
 O         -5.5381252576       -1.7236957101       -1.4234479808
 C         -6.1264175184       -0.8541136740       -2.3623040902
 C         -4.1837265939       -2.1672871671        0.4320193478
 O         -4.6987565571       -3.4076639125        0.3347340949
 C         -4.3600039350       -4.3703688981        1.3057431912
 C         -3.2674264865       -1.7401527728        1.3805362534
 C         -2.8144341514       -0.4275538039        1.3912569997
 C         -2.2790759439        2.3575023883       -0.9239389183
 C         -1.3339895100        1.3322175471       -1.5720293557
 C          0.0322940208        1.3393732864       -1.0031362951
 N          0.7741343174        0.2757236372       -0.7711045264
 C          2.1782192685        0.4105327892       -0.4649302819
 C          3.0462705552        0.2661542797       -1.7326407311
 C          4.4810902772        0.1243088155       -1.3159652007
 C          5.2354486024        1.2369322394       -0.9676618300
 C          6.5270276760        1.1101223803       -0.4918744561
 C          7.0886807234       -0.1585936368       -0.3392200203
 O          8.3178944482       -0.4111602331        0.1475893173
 C          9.1673982080        0.6665864818        0.4783945621
 C          6.3369033489       -1.2804687097       -0.7076127282
 O          3.1748423712       -2.2509553511        0.9902558606
 C          4.0212527523       -2.8957212162        1.5559245681
 C          5.0564992414       -1.1372834529       -1.1915589305
 C          0.2612545677       -1.0689240554       -0.8907033771
 C         -4.0335737225        2.8249398618        0.8586780329
 C         -4.6284233520        2.4026089107        2.1999078856
 C         -3.7207279036        4.3182784815        0.8809627007
 H         -4.5457600420        0.7718954675       -1.2360791598
 H         -6.6682174361       -0.0408442689       -1.8702284980
 H         -6.8288560219       -1.4652096350       -2.9255725412
 H         -5.3815363634       -0.4375305257       -3.0480721062
 H         -4.6473486714       -4.0439804867        2.3096829935
 H         -4.9240755182       -5.2625621377        1.0410202179
 H         -3.2899735394       -4.5998962611        1.2881218148
 H         -2.9061451213       -2.4217272536        2.1332641067
 H         -2.1259217438       -0.1255974691        2.1651590002
 H         -3.1303700479        2.5040818155       -1.5875776295
 H         -1.7631153796        3.3143625325       -0.8365437576
 H         -1.7820074937        0.3403444095       -1.5341799688
 H         -1.2365093059        1.6126844504       -2.6293067989
 H         -0.7413568376        1.5765485705        1.0372917805
 H          0.5170050151        2.2999113887       -0.8960314121
 H          2.4652082520       -0.3689653591        0.2433616788
 H          2.3655104151        1.3849624243       -0.0098374210
 H          2.9093866546        1.1401551521       -2.3720842643
 H          2.7348454753       -0.6220657449       -2.2825069778
 H          4.8110573385        2.2251308923       -1.0729549751
 H          7.0841262495        1.9971039059       -0.2366065903
 H          8.7532221396        1.2667722176        1.2941311715
 H          9.3554392341        1.3063592073       -0.3887782140
 H         10.1025270659        0.2142289328        0.8025756459
 H          6.7871677318       -2.2547360456       -0.6016512777
 H          4.5001538017       -2.5595525709        2.4840845566
 H          4.3623747044       -3.8697994152        1.1792021947
 H          4.4933273404       -2.0125571797       -1.4756897378
 H          0.0452813470       -1.3192121382       -1.9311981178
 H         -0.6562398472       -1.1781641971       -0.3083771153
 H          1.0037524621       -1.7645949023       -0.5068327824
 H         -4.7915796609        2.6498026400        0.0865110678
 H         -3.9148040392        2.5829650540        2.9974941342
 H         -4.8975796306        1.3491155513        2.1972773776
 H         -5.5248679568        2.9839504606        2.3995057831
 H         -2.9392084227        4.5295971162        1.6041158861
 H         -3.4168198754        4.6851992331       -0.0958054945
 H         -4.6130016183        4.8636185077        1.1771602624
 H         -0.8160335429        2.8230586068        3.0177163163
