72
 energy: 82.955948601236 xtb: 6.6.1 (8d0f1dd)
N           -1.44675811454659        3.97162474064540        1.92612858402856
C           -1.11565529829044        3.12102612592370        1.04828284753971
C           -2.15863300201174        2.77899309105828        0.21940230094712
C           -3.23211458574836        0.13885823283182        0.02864869701590
C           -4.36749919238733       -0.16437413775960       -0.73573717078199
C           -5.06763495588319       -1.34435093947104       -0.55721119411637
O           -6.07971482766175       -1.82240259789940       -1.30958232744302
C           -6.41208884356068       -1.15253225717675       -2.48065660468559
C           -4.71463076399356       -2.22797930625251        0.46486752323145
O           -5.46215532872026       -3.33635884336509        0.47209367138363
C           -5.37724692598776       -4.21011908636955        1.53728936941821
C           -3.70277686389128       -1.88260776025942        1.31414690107061
C           -3.00042236786206       -0.69714764249498        1.11368974539925
C           -1.71841971543660        2.68568962949398       -1.19914484501825
C           -1.04965564548550        1.35157864347874       -1.37134865530951
C            0.21321147718517        1.01976664119653       -0.94011688894051
N            0.59671987216068       -0.24619123357659       -0.54980298657287
C            1.98201021672827       -0.42135002578951       -0.16879471761223
C            2.97228817607448       -0.40989015496294       -1.34621141763843
C            4.39108457390347       -0.32230115485060       -0.85608191320945
C            5.12541997002392        0.84157483153878       -0.95834747707978
C            6.43235216733765        0.91071458140720       -0.48950633618848
C            7.04242297533744       -0.18895464802851        0.08950050794114
O            8.32606417230388       -0.22145387263902        0.56669403666333
C            9.11288454905787        0.92686214435074        0.41453610572499
C            6.29407512852000       -1.38495246399581        0.20775834177587
O            6.95077415927942       -2.42195584020499        0.79657577136136
C            6.25087084615754       -3.61918407071896        1.02038563422637
C            4.99407645102724       -1.43482567504462       -0.26918024900777
C           -0.05697996396754       -1.36520857946728       -1.20238535182171
C           -3.53456073931047        3.11524062529829        0.71175829134929
C           -3.76850541085075        2.78345545761435        2.21867983170280
C           -3.90181728980929        4.53750981909856        0.38776512501454
H           -4.66595493450987        0.54234906092648       -1.50046541538965
H           -6.84747317133301       -0.16433073022924       -2.30389375194302
H           -7.15409760602528       -1.85438298860936       -2.82520012760681
H           -5.59867101487775       -0.99346738289463       -3.20813504952506
H           -5.56610370560527       -3.78018922005680        2.53065590458402
H           -6.19801177183716       -4.86515277882886        1.27509779091650
H           -4.40571711567117       -4.70448846608163        1.49053903571909
H           -3.39705672189703       -2.55089098163677        2.09802573501105
H           -2.21723247461519       -0.47844812737745        1.84068945204834
H           -2.55370821512028        2.80264771495957       -1.88220697973370
H           -1.04162673065404        3.50912701846006       -1.24396284261394
H           -2.31574657141851        0.76560005722204       -0.42624555915641
H           -1.26471453233994        0.85088492385973       -2.29673668059078
H           -0.12904956441632        2.73571787343293        0.82257923791942
H            0.97389645620382        1.77973573122260       -0.94522511707668
H            2.10538461563494       -1.32493037651453        0.40540227654639
H            2.25976330769749        0.38491414172280        0.51120155668399
H            2.74415122198082        0.46292909026211       -1.96115979938358
H            2.83392911281432       -1.32841757311738       -1.94103330794047
H            4.68351144882059        1.71572477800329       -1.41106333862420
H            6.96655710141902        1.84170735856197       -0.58697813223363
H            8.71771519664961        1.77062721756551        0.98914516309721
H            9.19897474401662        1.21188487089019       -0.63544559767609
H           10.10268318853490        0.68280528100179        0.79345205289568
H            6.94313120567563       -4.26707100150716        1.56741618093591
H            5.36296484132608       -3.45647040102433        1.64140282542779
H            5.94411174476306       -4.09232462355968        0.07865490759595
H            4.41970366828608       -2.34709038969461       -0.21124436089999
H            0.02438894201869       -1.30477018378880       -2.29328292660654
H           -1.11214819401056       -1.36472584983858       -0.92015281750995
H            0.38281532268340       -2.30013798883180       -0.85273631747892
H           -4.30278667108951        2.62822927039963        0.12326748297375
H           -3.39686759557900        3.62208157805028        2.77885580862659
H           -3.35490521625193        1.84481502495259        2.53202690346936
H           -4.79156387594740        2.59592389929751        2.53127040528449
H           -3.28766504450860        5.15397689924139        1.00347580069969
H           -3.69832910460560        4.73964375302815       -0.65611290579468
H           -4.95159258688816        4.74051944531815        0.57418175850538
H           -0.63214516071519        4.30429861691046        2.38777039570326
