72
 energy: 29.633595227805 xtb: 6.6.1 (8d0f1dd)
N           -1.20528698366876        4.29049379450997        2.02088936053228
C           -0.88279566784060        3.63344448475495        0.97760855994629
C           -1.87914775776236        3.18784101135243        0.15735819834406
C           -3.39893381895157       -0.11253530052082        0.00224810633399
C           -4.49245205970975       -0.42366865644361       -0.80857791674880
C           -5.20629261528975       -1.59655149922338       -0.61767105866068
O           -6.24501386773250       -2.03615072564962       -1.36531700193059
C           -6.62322215444048       -1.31241134793479       -2.50020854006952
C           -4.85761060342254       -2.48100240158252        0.41505327306275
O           -5.59089415838321       -3.61222628789711        0.44236094650773
C           -5.39101692994602       -4.50418499888961        1.48456012359031
C           -3.83956428294621       -2.13701551778103        1.27131503927972
C           -3.12658571980383       -0.95938403183111        1.06253447266783
C           -1.45283314744522        2.93204086853138       -1.24166712954445
C           -0.96342723007315        1.51907353137738       -1.29567951432149
C            0.16010813888206        1.10585747122313       -0.69721465306210
N            0.55181473605248       -0.17618536705830       -0.45551482995308
C            1.90745321290219       -0.45270020661904       -0.04419026647848
C            2.90047268590748       -0.36171405570361       -1.22472909559948
C            4.32429705570827       -0.29355635705636       -0.76027115112901
C            5.05640385350644        0.87250369984416       -0.87542889365695
C            6.37363102868564        0.93294672427763       -0.44012035547989
C            6.98841872910476       -0.17342548496506        0.11683914038687
O            8.27699424015983       -0.22907583333011        0.56641546555465
C            9.08503420513094        0.90809920555447        0.40806659463523
C            6.24240724020283       -1.36733106263472        0.25454793096349
O            6.91177760452494       -2.40049513566364        0.84015354809446
C            6.22999703614898       -3.60905219572146        1.05412420020350
C            4.93312949848008       -1.41180843095566       -0.18896409095958
C           -0.08706292898479       -1.21040795806517       -1.22808062921882
C           -3.28315946321227        3.25623328222949        0.64089480064815
C           -3.42811076116019        2.75286670025201        2.11241861598267
C           -3.75069520372756        4.68638970083566        0.51705139669314
H           -4.80644025498619        0.28079514570562       -1.57155063400610
H           -7.06653018935687       -0.32853769656091       -2.28802919002253
H           -7.40448465200128       -1.98369847642652       -2.84740798371518
H           -5.79326399400378       -1.18570361500333       -3.23755677889595
H           -5.57233204747281       -4.06450128224672        2.47244539334066
H           -6.13769294794427       -5.25567657615800        1.26404026476913
H           -4.38230502747335       -4.90868646683411        1.47996200602863
H           -3.56785798059825       -2.79004628963047        2.08261684224737
H           -2.34250672912164       -0.71585826649989        1.76749060045881
H           -2.27725093091238        3.09531258840656       -1.92683627578273
H           -0.67321940407585        3.62314615553918       -1.49602009217306
H           -2.73048413770866        0.75807598638572       -0.20380345847488
H           -1.48604763721838        0.87254083609060       -1.98763659571987
H            0.12176464738054        3.53024020845577        0.60436934161738
H            0.84411157582245        1.83801598347163       -0.33680301144253
H            1.96824776395848       -1.46187092857331        0.38332888225744
H            2.17158721555108        0.27510092558889        0.72826117395379
H            2.65081508156157        0.53808201124012       -1.78767162653028
H            2.76369194335601       -1.22107847370617       -1.88976202648071
H            4.60867629615592        1.75313873733487       -1.31283293887141
H            6.91096943553011        1.85916845077737       -0.55164431964973
H            8.70477406834565        1.76160424104320        0.98182998367968
H            9.15896238615962        1.18523425745468       -0.65261062993029
H           10.06666703429908        0.62406474070692        0.79949690823814
H            6.94839372714165       -4.26890301526026        1.53948707758510
H            5.35550360510512       -3.47809659948003        1.69854389716666
H            5.90821460490682       -4.05402838185693        0.11005720114867
H            4.36030582713041       -2.32233185270924       -0.09726916219064
H            0.04385058990002       -1.04464885151448       -2.31445251096875
H           -1.15043468935171       -1.24017137060406       -0.97121191095222
H            0.36957787233022       -2.16523713645126       -0.98258698215474
H           -3.92607622387966        2.71497210961645       -0.05292448676562
H           -3.12458230521776        3.54068055350170        2.78766588085991
H           -2.78092103002821        1.93449905349228        2.35265635997314
H           -4.39990918795679        2.35664255833064        2.38614681479348
H           -3.11824375850548        5.26916227714485        1.17321290592439
H           -3.57608713685736        5.03164114008614       -0.49573496222381
H           -4.81841511666150        4.79388103835425        0.72748100494210
H           -0.34975727510775        4.70637145520338        2.30768929897024
