72
 energy: 40.125677476599 xtb: 6.6.1 (8d0f1dd)
N           -1.25311510671847        4.23294270237045        1.97374379531087
C           -0.92593291037426        3.51567972137520        0.98046876036649
C           -1.93486760444990        3.09312135338054        0.16556055785226
C           -3.35500875987545       -0.06273475305613       -0.00406901246506
C           -4.46094834956507       -0.37238860917170       -0.80010445798831
C           -5.17789956654738       -1.54331284774342       -0.60626625641485
O           -6.21791853737635       -1.98689518429013       -1.34824036387332
C           -6.57883264386274       -1.28157923094999       -2.49808474727027
C           -4.82827116027542       -2.42874555096912        0.42176304997714
O           -5.55743500339287       -3.55924002652595        0.44055364836694
C           -5.38279474086423       -4.44090995758963        1.49183404344624
C           -3.81294526604477       -2.08208339501658        1.27635061598553
C           -3.09742631961207       -0.90614164809741        1.06324677797506
C           -1.50708321508048        2.87809159522606       -1.24246658396172
C           -0.96956996094830        1.48192194654853       -1.30966054402903
C            0.17850466127949        1.08261990724725       -0.74028075351854
N            0.55344667857111       -0.20426733343876       -0.46089180522152
C            1.92189854052535       -0.47121484453664       -0.07705339316327
C            2.91538868370204       -0.36214503872161       -1.25515262092632
C            4.33793423718958       -0.29300705068643       -0.78116302023832
C            5.07227185736171        0.87334905911095       -0.89014082900056
C            6.38713764861620        0.93535570903423       -0.44562833284540
C            6.99848105684513       -0.17414694588374        0.11048318694260
O            8.28576322560821       -0.22964778668292        0.56668561610606
C            9.09129651082089        0.90943592067543        0.41540179270327
C            6.25092236245820       -1.36882110638181        0.24078518563090
O            6.91656849124470       -2.40509061219955        0.82505128368217
C            6.22834637501691       -3.61003202831978        1.04039177897599
C            4.94326165096163       -1.41281264661072       -0.20853708651988
C           -0.06765578476693       -1.24303119460244       -1.25689030091501
C           -3.33275442436819        3.22135307177292        0.66176881411709
C           -3.49105741838866        2.75780146531643        2.15215708256185
C           -3.78143534940138        4.65133315243907        0.49132129796756
H           -4.78305148397188        0.33594628122170       -1.55590202848115
H           -7.02214489403411       -0.29474222802763       -2.30338785179121
H           -7.35367953356905       -1.96315679509767       -2.83520662691335
H           -5.74161136118074       -1.15960389843301       -3.23039233607869
H           -5.56627314950508       -3.99955370084530        2.47884697522085
H           -6.13751182371670       -5.17829450869403        1.25850257269710
H           -4.38408442252871       -4.85603652241190        1.50376445626205
H           -3.53494108588260       -2.73868708354232        2.08175842990167
H           -2.31725264108809       -0.66490556561037        1.77493053346727
H           -2.32851697881287        3.02408490656876       -1.93335397076208
H           -0.75534387202221        3.60846451812509       -1.45796348199026
H           -2.64510967200037        0.77629171154753       -0.24307142997190
H           -1.44186132458281        0.84948847170231       -2.04407883902408
H            0.07832210275842        3.36414803675020        0.62754037867852
H            0.85704167057100        1.83499618394966       -0.42708478316037
H            2.00183593275468       -1.47980952658632        0.34062658336687
H            2.19852221233896        0.24345528257070        0.69820918555280
H            2.67203433079868        0.54231873422369       -1.81687414190168
H            2.78811569179566       -1.21756122192818       -1.92841088700070
H            4.62827647644349        1.75498838042860       -1.32907382862984
H            6.92238440367016        1.86575998036797       -0.54199771952403
H            8.71071568160689        1.75889944046800        0.99499182446747
H            9.16502837880806        1.19208077914185       -0.64357128037008
H           10.07457185199369        0.62794467009392        0.80187133220333
H            6.94069333750526       -4.27195048354728        1.52956171884096
H            5.35367489112038       -3.47334823469271        1.68315679200591
H            5.90702760045831       -4.05824408038159        0.09712219170615
H            4.37040227579420       -2.32424084151948       -0.12188355171892
H            0.06885327692402       -1.08619994177135       -2.34214086959128
H           -1.13403174656187       -1.28197366443211       -1.01825417484353
H            0.38762978905182       -2.20444905229215       -1.02487123593573
H           -4.00480128087644        2.70030550688191       -0.01584634537064
H           -3.18197408280378        3.56470138434515        2.80497582851939
H           -2.87974486127183        1.92154262320473        2.41614483072929
H           -4.46536773331328        2.37919192298830        2.45224307061758
H           -3.14773453397245        5.23834537188877        1.13495863188768
H           -3.59199183962320        4.96744288011856       -0.52701741329213
H           -4.85391406178152        4.77006291791349        0.68154246451554
H           -0.38972652438255        4.64066702070590        2.23212063400042
