72
 energy: 61.878048610520 xtb: 6.6.1 (8d0f1dd)
N           -1.35244175527375        4.09583355648869        1.90278445050317
C           -1.01745548189410        3.29432299822807        0.99193515567140
C           -2.05231725287140        2.92224794174272        0.17948885704171
C           -3.28196936650634        0.03991889156338       -0.00113518557711
C           -4.41142372994971       -0.26553879929234       -0.77173135877737
C           -5.12190248461487       -1.44040561313774       -0.58273782157829
O           -6.15251524509233       -1.89939310367279       -1.32561197841454
C           -6.48620782018874       -1.21959633693680       -2.49478563775484
C           -4.77134133739607       -2.32673739004610        0.43884159357186
O           -5.50793449765772       -3.44670039998531        0.45065962674100
C           -5.38312950702382       -4.31344810076879        1.51694766851426
C           -3.75762281989839       -1.97891821892880        1.28760439866006
C           -3.04691567721151       -0.79910310293808        1.07621560180396
C           -1.61839332257199        2.77668746202261       -1.23516642952820
C           -1.00026702180864        1.40950063920776       -1.33946615380451
C            0.19568668668989        1.03618021600695       -0.83572997166450
N            0.56760998613791       -0.24882547211496       -0.50225427412553
C            1.95300640305128       -0.46374553512509       -0.13700810133026
C            2.94657172472808       -0.38136303490440       -1.31128519971652
C            4.36518519645901       -0.30143614445290       -0.82159786295554
C            5.10114993371240        0.86376505851288       -0.92285171150981
C            6.41243965754460        0.92930799623861       -0.46578978281714
C            7.02011054880777       -0.17890165755964        0.09824889984901
O            8.30604841626645       -0.22766000289857        0.56657283301691
C            9.10505491288176        0.91439727482045        0.42043158639594
C            6.27053849930341       -1.37460947766321        0.21695521605834
O            6.93067735625256       -2.41474318979352        0.79804097687383
C            6.23502061390745       -3.61438701194600        1.02122046309460
C            4.96637722412174       -1.42033632552957       -0.24475541597845
C           -0.04644887636861       -1.32750796285521       -1.26743924036819
C           -3.43402023672342        3.16286202738500        0.69444613759725
C           -3.62933381247533        2.77491569727780        2.20536776931033
C           -3.85168269643430        4.58705678023291        0.43484528303646
H           -4.73104679053181        0.44265718001097       -1.52762253080730
H           -6.92746386166776       -0.23094052522992       -2.31537829640145
H           -7.24877729803316       -1.91083186788389       -2.82998544312901
H           -5.64092852768042       -1.09470004677423       -3.21790879998998
H           -5.56019509727665       -3.87272610478179        2.50716160096543
H           -6.16289503817459       -5.01901709380666        1.27562050081362
H           -4.40945547751574       -4.76230496246697        1.51677940577837
H           -3.46091246724062       -2.64541381156747        2.07802626764745
H           -2.26928419464665       -0.57013011378523        1.80224289665772
H           -2.43773267619735        2.89633784176973       -1.93497348011114
H           -0.91040457718518        3.56465361021477       -1.36599410245060
H           -2.47469002425560        0.79253342452627       -0.31701440851491
H           -1.35657106145863        0.81527915635629       -2.16192730669719
H           -0.01757912963336        3.03395651822004        0.70821749234646
H            0.91290470694629        1.80692003892540       -0.66686997207525
H            2.06067580273241       -1.42066922042033        0.35103386975918
H            2.23336476129207        0.29016497053188        0.59713424073684
H            2.71106669759222        0.51340316331771       -1.89209983072108
H            2.82972622543433       -1.25687385695508       -1.96759094552609
H            4.65859695616067        1.74180294393192       -1.36855646786785
H            6.94915006352429        1.86073839555815       -0.55813796876729
H            8.72109548201423        1.75805010113656        1.00416632099510
H            9.18031939864895        1.20430586660727       -0.63372876289959
H           10.09112821617214        0.64843498039357        0.79998471957445
H            6.94053260676923       -4.26503844027978        1.54096912044953
H            5.35280927550476       -3.46498895688307        1.65178771373355
H            5.92132704194105       -4.07583518758241        0.07988884731317
H            4.39143004945719       -2.33180749354944       -0.17022088919037
H            0.06818813243248       -1.21118865810971       -2.35046067133291
H           -1.11180931624379       -1.36129722400891       -1.04054552237907
H            0.38379834521224       -2.29298579195474       -0.98366161436898
H           -4.15749597440173        2.66664806063211        0.05773662786301
H           -3.29574318938520        3.61480486807704        2.80428293976146
H           -3.10962537040328        1.89173988570044        2.50704164735568
H           -4.62600298604900        2.47738922221436        2.53056611850160
H           -3.23034827510952        5.18955446966337        1.06313832071122
H           -3.63729431943838        4.84785061505247       -0.59311986776927
H           -4.93248146801767        4.71989914684907        0.58442808683645
H           -0.49089498076026        4.43692922447091        2.23994443269005
