72
 energy: 51.568262856645 xtb: 6.6.1 (8d0f1dd)
N           -1.30392618939918        4.16201948039926        1.93447607808568
C           -0.97175361210630        3.40275315062774        0.97925164417451
C           -1.99462950556549        3.00457105152180        0.17066029126377
C           -3.31494563101534       -0.01242560643859       -0.00489345195191
C           -4.43437703504089       -0.31941350894341       -0.78670937721042
C           -5.15067943385503       -1.49099107842569       -0.59449563369895
O           -6.18789374842295       -1.94126167762394       -1.33505824420757
C           -6.53286378352969       -1.25111545407229       -2.49680777133287
C           -4.79971365801657       -2.37776691038949        0.42836815772674
O           -5.52984855649018       -3.50451146867178        0.44374612533754
C           -5.38062440900932       -4.37660009400434        1.50387989176776
C           -3.78601355678683       -2.02963020382166        1.28004027376721
C           -3.07099811605478       -0.85284243611759        1.06798157550634
C           -1.56478516248989        2.82983022712632       -1.24205935194516
C           -0.98076293666626        1.44699401179466       -1.32381653118008
C            0.19301282385626        1.06000484852405       -0.78885759975155
N            0.55789422964451       -0.22986479648314       -0.47531399310901
C            1.93801779269248       -0.47325117660898       -0.10841101911855
C            2.93132926586462       -0.37008999211508       -1.28494895393260
C            4.35184442540708       -0.29524288333092       -0.80163584396930
C            5.08804864456266        0.87034297011880       -0.90636394265997
C            6.40120056207331        0.93443553553073       -0.45524625137544
C            7.00937410063459       -0.17570092881784        0.10394931819106
O            8.29581123186276       -0.22915202325495        0.56678318115480
C            9.09926467037126        0.91093939983894        0.41952396033131
C            6.26008683736866       -1.37083648345469        0.22811832764552
O            6.92219885176964       -2.40944739230229        0.81083244154858
C            6.23038607877131       -3.61164928998332        1.02964320224708
C            4.95416583417912       -1.41543101286710       -0.22726174869466
C           -0.05289001183748       -1.28408659401679       -1.27288011819636
C           -3.38339944442962        3.19108800870415        0.68161043489040
C           -3.55834235262239        2.76491427071736        2.18529165242365
C           -3.81555866123228        4.61884171308725        0.46411110284062
H           -4.75836235603036        0.39003700285606       -1.54034573682899
H           -6.97501483492175       -0.26265708456532       -2.31275183144026
H           -7.30162363494923       -1.93835786299671       -2.83132424983756
H           -5.68952602794291       -1.13165317650544       -3.22411514629206
H           -5.56424717585726       -3.93455603275320        2.49122678825092
H           -6.14540137523052       -5.09950174287947        1.26360487108416
H           -4.39399650671769       -4.80563610753519        1.52650989891702
H           -3.49723218384777       -2.69414720264297        2.07441728337745
H           -2.29356527670760       -0.61720585226234        1.78810486027331
H           -2.38354476399077        2.95823392893627       -1.93741197788028
H           -0.83535521357195        3.59009233399584       -1.41554829716804
H           -2.55878893852804        0.78620644319670       -0.28113582494043
H           -1.39689971086021        0.82887984286280       -2.10143023848435
H            0.03166180181117        3.20006989100979        0.65863336827558
H            0.88616243088150        1.82399292932741       -0.53785822759824
H            2.03345378088406       -1.45760601075889        0.33633519338378
H            2.22588480976954        0.25263861778296        0.65049956744768
H            2.69132880491251        0.53060358983639       -1.85360398982820
H            2.81475542424902       -1.23053406199763       -1.95744340861044
H            4.64572708667572        1.75064085849707       -1.34843896128835
H            6.93819670802350        1.86589997476271       -0.54782185397919
H            8.72007106290086        1.75638988608332        1.00450817407133
H            9.17280563830330        1.19844387547806       -0.63720580854251
H           10.08362733017493        0.63541433930306        0.80151904865504
H            6.93988296634502       -4.26781662735601        1.53199622898379
H            5.35226290362010       -3.46979537839818        1.66718023033923
H            5.91232239869104       -4.06616921464623        0.08728881681720
H            4.38035480611589       -2.32707884926519       -0.14639294804561
H            0.07741140064126       -1.14299388625407       -2.35482278466441
H           -1.12160224436449       -1.32180652862385       -1.05740658437583
H            0.38773564841527       -2.25567102774939       -1.03215449460650
H           -4.08214955673984        2.68497784973809        0.02266025433863
H           -3.23934397025727        3.58849905117224        2.81392105497381
H           -2.98977044081620        1.90633101227617        2.46589066866208
H           -4.54128696762964        2.41950037471904        2.50541814472601
H           -3.18681886177203        5.21394498853441        1.09803535554082
H           -3.61327742605666        4.90611602871554       -0.55963706016594
H           -4.89183841958578        4.74659102667644        0.63498670802286
H           -0.43377375725511        4.54371051523442        2.19692194077718
