72
 energy: 94.646823954338 xtb: 6.6.1 (8d0f1dd)
N           -1.49246098422233        3.88623878680011        1.98148005880364
C           -1.17179435461512        3.03432264916645        1.09197970643694
C           -2.20798311000901        2.70408474366472        0.24411464181377
C           -3.20957431367577        0.18727795873947        0.04989263148079
C           -4.34355255508606       -0.11649077222356       -0.71691444795473
C           -5.03857637546654       -1.29867495110039       -0.54393359718217
O           -6.04001176730995       -1.78759757205116       -1.30182808359334
C           -6.38741136684651       -1.11438257343405       -2.46417392345879
C           -4.68794879333289       -2.18131478992279        0.48074611029575
O           -5.44774159838127       -3.28198986428544        0.48411249668317
C           -5.36393413650097       -4.18376591191067        1.52197657559610
C           -3.67736391608769       -1.83645616992486        1.33042121825638
C           -2.97778909200800       -0.64790980568232        1.13580736702422
C           -1.74440183734487        2.65302120200041       -1.16869311094962
C           -1.06803601800281        1.32805030888578       -1.39534264485229
C            0.23052624640285        1.01723711340199       -0.99935590048185
N            0.61584638152524       -0.23351909882558       -0.57731532789925
C            1.99797267124546       -0.39509942436390       -0.17656116405124
C            2.98512315837068       -0.43151857473031       -1.35482001318777
C            4.40547919851799       -0.34085059779835       -0.86840135108726
C            5.13649396329710        0.82473435666774       -0.97665098906541
C            6.44127569139055        0.89851945356492       -0.50265497530694
C            7.05365523881949       -0.19506887673072        0.08586358745005
O            8.33432340325458       -0.21758116683575        0.56706363768566
C            9.11592228822526        0.93468295461264        0.40845628357379
C            6.30828767976951       -1.39192107062883        0.21017485865201
O            6.96050166403280       -2.42458172864002        0.80895994649406
C            6.25735507060616       -3.62103850246225        1.02894605415838
C            5.01035119416208       -1.44757769200417       -0.27109858915923
C           -0.06164486197189       -1.36962573407174       -1.15925801266001
C           -3.58256697112252        3.09198316839933        0.71714264278455
C           -3.84256133542519        2.77525167648626        2.21507773052893
C           -3.90323625835972        4.52301626814165        0.37580618672800
H           -4.62609630171098        0.58665217172306       -1.48857688116225
H           -6.83789712985022       -0.13424981715413       -2.26813043819072
H           -7.11868375894035       -1.82605301465158       -2.80929369089777
H           -5.59804183050502       -0.93301948111155       -3.20147386234494
H           -5.54702761073539       -3.78193965908124        2.52352006211870
H           -6.18714098795942       -4.83751622104095        1.24770438581281
H           -4.37794967615456       -4.67842466944497        1.46542177878533
H           -3.36997256017744       -2.50335144888694        2.11426467477753
H           -2.19334381315845       -0.43282957582125        1.86365704029237
H           -2.57189576120283        2.83379510992345       -1.83308684756817
H           -1.06034440957964        3.47237338185371       -1.15819947326857
H           -2.22855281086464        0.73340457084907       -0.50251563913777
H           -1.22488903448332        0.89168094912777       -2.36702542947955
H           -0.18908052917249        2.60397007497181        0.90167525134632
H            1.00535186314062        1.76546894200264       -1.08358780646935
H            2.12188201084082       -1.27282867031079        0.43893258998789
H            2.27965060177883        0.43498565505349        0.47259456973092
H            2.76259612167814        0.42944269504550       -1.99122235939688
H            2.83400715234294       -1.36978971979644       -1.91537464154907
H            4.69425788138643        1.69734881854741       -1.43278215619801
H            6.97330038273504        1.82975084049713       -0.60441265905393
H            8.71483813014252        1.77965862447236        0.97625551208978
H            9.20660864055761        1.21307443601281       -0.64048201813455
H           10.10688075887263        0.70090725577835        0.78866767691902
H            6.94463048148117       -4.26979199155785        1.58304913395949
H            5.36821258890822       -3.45596054152468        1.64910381586826
H            5.95620069680499       -4.09534246254156        0.08468130693311
H            4.43787444444230       -2.36026944846887       -0.20990821127083
H            0.00087293390580       -1.34531604516825       -2.25215767854848
H           -1.11072384565463       -1.35208117139220       -0.85351704419726
H            0.38388367956480       -2.29062723627526       -0.78194746052743
H           -4.37218817298109        2.60884703212079        0.15252002393212
H           -3.42079843552166        3.57386181108830        2.78265919037405
H           -3.48610403608172        1.80962645544611        2.51889708849407
H           -4.87622411266069        2.65604226474456        2.51861461665222
H           -3.25885927406324        5.12132043140793        0.99252709896368
H           -3.72622439552805        4.69287375139339       -0.68264432192737
H           -4.92993149957482        4.78031942761679        0.58899287036511
H           -0.68285268776986        4.19477147162463        2.47207141647133
