72
 energy: -2.563717978819 xtb: 6.6.1 (8d0f1dd)
N           -1.55444831399064        2.99082317505289        2.27017250314688
C           -1.55101290487873        2.25706483361598        1.25924536425933
C           -2.68963308753679        2.07070857329579        0.32400241147083
C           -3.25253708107595        0.61979702009115        0.34518911460541
C           -4.24970695793107        0.19707828165027       -0.56968457606844
C           -4.87497367690131       -1.04608456253479       -0.49838186590339
O           -5.85932398270575       -1.53035722770783       -1.32587342026995
C           -6.42143741333149       -0.70504476333643       -2.31634721622188
C           -4.48617276127045       -1.97896394193780        0.48297518617405
O           -5.10600622635778       -3.19195491648511        0.44308415840145
C           -4.78623680218871       -4.15352152721987        1.41764837254891
C           -3.50778062915912       -1.58621933350692        1.36975758491265
C           -2.92980254170273       -0.32027521436058        1.30620317376293
C           -2.11498931054047        2.36976051151786       -1.09285824994292
C           -1.23515279472303        1.22771707917701       -1.62223303088004
C            0.08121585726383        1.13628175226924       -0.95352693490254
N            0.63996445015074       -0.06907141621690       -0.53884030185119
C            2.02251787325967       -0.10130064092218       -0.16558181560721
C            2.96697431695287       -0.54204316650199       -1.31266462892126
C            4.39132764746444       -0.44003193164879       -0.86396338744239
C            5.11220142495415        0.72511271251690       -1.05088952014623
C            6.41428202449358        0.84119371376727       -0.59081644638086
C            7.02141253174339       -0.21325353011874        0.06440015307578
O            8.29854505200490       -0.21017290727720        0.53739237336283
C            9.08458706347244        0.93649132447724        0.33052596693362
C            6.29608581164728       -1.40660830151511        0.27370882106272
O            6.96909582307367       -2.39511078127057        0.93214503659190
C            6.30438937897141       -3.61393845478698        1.14220325668619
C            4.99655149256346       -1.50012493188073       -0.18891388939129
C           -0.06777101161634       -1.31219698180656       -0.70451356335065
C           -3.86155781791216        3.04173353792574        0.61964682943512
C           -4.40576240476951        2.74825885412211        2.00592347533888
C           -3.49172635406004        4.53675617393892        0.51753346688626
H           -4.60650881542108        0.84840542064153       -1.36392323369043
H           -6.89039171273447        0.18128405225502       -1.87825303456431
H           -7.19052127581597       -1.30602592953562       -2.80504104080928
H           -5.68438558965322       -0.38986593980721       -3.06375381248207
H           -4.98779938362477       -3.78316731496907        2.42812744581906
H           -5.44001298684700       -5.00799781263265        1.21592294114836
H           -3.73442177127269       -4.46749907992266        1.35647223312436
H           -3.17197102454055       -2.26845595125278        2.13210205387882
H           -2.19036100199486       -0.06845064232364        2.04291617561549
H           -2.94361688619574        2.52868272745875       -1.80143221319722
H           -1.51708465491171        3.28056315692531       -1.06203767975975
H           -1.77350511344963        0.30800625721686       -1.44534640863527
H           -1.13743989302420        1.39600511765078       -2.70547001638532
H           -0.65112662662391        1.72285327173980        0.93209560040548
H            0.77182449384213        1.95033869757768       -1.09966206214142
H            2.16026588249543       -0.77100380235735        0.69402281465200
H            2.32447407159418        0.89378506267919        0.15986352707729
H            2.80832398326990        0.12008757959990       -2.17360110724259
H            2.72600970747571       -1.56946228837752       -1.59425929525976
H            4.66888425634227        1.56205945672293       -1.56554552754859
H            6.94263009330660        1.76601413958455       -0.75556722569229
H            8.66820526584311        1.81468779209756        0.83801150709026
H            9.20623816317908        1.16026042521352       -0.73446912570913
H           10.05817171294021        0.70956704833363        0.76013413582169
H            7.02735785554630       -4.25315502957273        1.65182917369497
H            5.42288663983525       -3.48865201485734        1.78056532237982
H            6.00781149389038       -4.07688095921096        0.19525396325790
H            4.43228817587595       -2.40713304153127       -0.04366649470163
H           -0.19167631325419       -1.59093513829941       -1.76166472645795
H           -1.05668757018437       -1.24539062169518       -0.24153709935911
H            0.47452476044733       -2.11139153551314       -0.19664869518240
H           -4.63195076017576        2.81359888388854       -0.13041202621742
H           -3.64341275387143        2.99370190344823        2.71910119051935
H           -4.64405768418561        1.69239628470825        2.08369897600052
H           -5.31050133991423        3.30320214589227        2.22404408174859
H           -2.70712611631022        4.75956526258117        1.23427882931458
H           -3.16856589745079        4.84718842620270       -0.47624848390883
H           -4.35584296449591        5.14774273778635        0.77516200910923
H           -0.65604722280629        3.02722293202501        2.73930814394863
