72
 energy: 32.689439786443 xtb: 6.6.1 (8d0f1dd)
N           -1.64335539238297        3.43043708155596        2.18755149058334
C           -1.47303211570691        2.53118806334129        1.33507082892148
C           -2.52521396404358        2.16720931029703        0.33701585043737
C           -3.18131042184772        0.55790108983770        0.31929882476868
C           -4.19289774329633        0.12155033903994       -0.58514580372222
C           -4.87175117457797       -1.10139112274084       -0.49055005664046
O           -5.83798362249308       -1.61901700342602       -1.30336182597335
C           -6.42638271653670       -0.89324793440478       -2.36464493731768
C           -4.57349541245022       -1.98802896546156        0.57394560796284
O           -5.32440047851317       -3.12261514312676        0.56172183048677
C           -5.04617171705033       -4.18469428658409        1.44164600048699
C           -3.56604154451999       -1.62422105170883        1.43747703217555
C           -2.88922351090811       -0.39806638380856        1.30089015317695
C           -1.89086473569150        2.49773572198278       -0.99172806223426
C           -1.13570327147699        1.26923865779374       -1.51521256013727
C            0.25310634204662        1.07547200193748       -1.08223778767863
N            0.64875581037395       -0.13152055028173       -0.50752948805266
C            2.05117980485927       -0.23917561825526       -0.17762646764827
C            3.01404543745077       -0.52612474153584       -1.36341154653754
C            4.44475768683951       -0.43378840081065       -0.90583782870949
C            5.16677253492678        0.73889495435533       -1.04930904781912
C            6.46252277718240        0.84459060945476       -0.56556093718104
C            7.07044696458833       -0.22112789714882        0.07018217009837
O            8.34285682070574       -0.20719015437471        0.55728566012742
C            9.11357941622538        0.95476124572959        0.35802583296968
C            6.34332466324939       -1.41893094550996        0.24235627065893
O            6.98868837163591       -2.42428291662336        0.89849736111625
C            6.28224898955535       -3.62133845505642        1.10304371332299
C            5.05156099233303       -1.50647974494457       -0.24788652450059
C           -0.07216881332287       -1.33553267943874       -0.88639834420581
C           -3.77717394998149        3.00939660783450        0.68917616542740
C           -4.18485961021137        2.73400711411462        2.13055014491524
C           -3.67919389032841        4.53559814227201        0.45101629623011
H           -4.40375618308773        0.77517346357522       -1.41552363831064
H           -6.92488909576216        0.02843376158810       -2.03599169829676
H           -7.18742475016611       -1.55475001427280       -2.78524463526077
H           -5.70781808800550       -0.62231307491368       -3.14262093326796
H           -5.21269336714556       -3.87419604443149        2.47533956056107
H           -5.77443836914725       -4.96715622637942        1.18953818127676
H           -4.00561106327718       -4.56744981121604        1.35011870294761
H           -3.30798966336804       -2.26916248568770        2.27186218785338
H           -2.11468132926627       -0.22005723048733        2.05337238040648
H           -2.70197166003229        2.75973199996911       -1.69013083501707
H           -1.23005813098545        3.33657271687133       -0.81000918188635
H           -1.77659368231707        0.49380891877626       -1.10068552338103
H           -1.10513323368260        1.28860075730570       -2.60640784231322
H           -0.56478099284141        1.94365042628325        1.35899872176293
H            1.03463417892166        1.74177688660177       -1.41631753694580
H            2.19654463135518       -1.00544505669232        0.58533549738966
H            2.37034795388294        0.69075786507967        0.29630672589731
H            2.82741845342849        0.24783518479798       -2.11939973243258
H            2.80253451984138       -1.52897785904025       -1.74754204237522
H            4.72809325772875        1.59862952243754       -1.53454378138096
H            6.98074428381800        1.78154625665876       -0.68524822870606
H            8.69645871842333        1.81830550454485        0.88866655536045
H            9.21051309936434        1.19416080638344       -0.70102225827004
H           10.10249862906849        0.74926687150600        0.76023405544166
H            6.97123093375590       -4.27883079171310        1.64294031089825
H            5.39616639554481       -3.45755870205985        1.73205663847078
H            5.98375128269886       -4.08339052621596        0.15274077249515
H            4.49233719816207       -2.42162438005854       -0.13163524384055
H           -0.09716182680446       -1.48558459443783       -1.96881037087760
H           -1.10096390604242       -1.27886758859556       -0.51031146483529
H            0.39324125548412       -2.20200212317350       -0.41859811805253
H           -4.58565194990864        2.54841020239382        0.08902414178656
H           -3.52856114010477        3.24583137240301        2.77965993871580
H           -4.15271238952069        1.67147824800801        2.31508615665907
H           -5.20072328412303        3.00142739159891        2.37006064681974
H           -2.92628294235402        4.92789518599621        1.13350501039434
H           -3.43676379057923        4.81282211236927       -0.57512350677961
H           -4.61074572490685        5.04284171077747        0.69084268752883
H           -0.76931128644888        3.57092726906378        2.67715536117156
