72
 energy: 3.264627175577 xtb: 6.6.1 (8d0f1dd)
N           -0.95887243158114        4.50818991616248        2.23347701628542
C           -0.66881045038123        4.16854385528375        1.01696984046298
C           -1.61010419762236        3.63884887556492        0.12859270206700
C           -3.66571966381816       -0.33623302359287        0.08957177378514
C           -4.69195731381924       -0.66492312224194       -0.78707155587215
C           -5.37496260475412       -1.85929075421252       -0.64571182955420
O           -6.39021330817755       -2.29036249568833       -1.44557312782747
C           -6.82095501477855       -1.46530518373093       -2.49718475110536
C           -5.02381911534878       -2.74020849930630        0.40339070508645
O           -5.75822543930819       -3.88640945763983        0.46257452186331
C           -5.49324999813255       -4.80639730331787        1.48960426072965
C           -3.99949941262083       -2.39764327830548        1.26791824351964
C           -3.32041271930887       -1.19634127830184        1.10862382892768
C           -1.17562897596019        3.24816191656578       -1.24886633342907
C           -0.85576123176636        1.76989497775378       -1.21790604189356
C            0.23696126909102        1.30366555231172       -0.60315070758357
N            0.59652770441779       -0.00203737036300       -0.41978036141841
C            1.95134772444437       -0.29897970836308       -0.03820129255377
C            2.91072385798304       -0.42141839097298       -1.24238854631766
C            4.33989570353081       -0.34362656400209       -0.79315281516631
C            5.06465238149558        0.82284825284852       -0.94139129992394
C            6.38023625299542        0.90560237070723       -0.50492223228747
C            6.98721250741806       -0.17999939319352        0.09867015103751
O            8.26951814519593       -0.21714973940546        0.55621972693784
C            9.08388455913829        0.91210237334079        0.37007649376504
C            6.24961107084432       -1.37437231665292        0.27122790938469
O            6.92573895093480       -2.38617819863403        0.88271700869599
C            6.26801442047595       -3.60780428786856        1.09865197809081
C            4.94377306125864       -1.43976173315463       -0.17724660444497
C           -0.16685603820444       -1.05433682413102       -1.04140033219015
C           -3.04880091676689        3.46637363218014        0.50606588832560
C           -3.23537144835311        2.77269430488621        1.85745020535145
C           -3.71537079587683        4.85136845200692        0.54850298043565
H           -4.95251901639170        0.02400976766655       -1.57549746938550
H           -7.21249107284557       -0.51056605000513       -2.12981859272359
H           -7.62215231891076       -2.01688539982162       -2.98720220686061
H           -6.02033929032074       -1.27516208567237       -3.22030530176609
H           -5.65712838174738       -4.36806469528325        2.47993446988686
H           -6.19912928416035       -5.62154066668052        1.33657602890906
H           -4.47184619666204       -5.19799424462168        1.43093931328591
H           -3.72130744124056       -3.05593335544614        2.07581779017113
H           -2.52399270307477       -0.94141855268175        1.79160271297968
H           -1.97226014518481        3.43130295123100       -1.97183835798482
H           -0.29326360959450        3.81848065378139       -1.54981383102104
H           -3.14580301319943        0.60002265877404       -0.02870563402763
H           -1.57369003387922        1.10387409709403       -1.66835149774202
H            0.34253687906770        4.30165743522108        0.60211700410518
H            0.92855218492391        2.00622265908092       -0.15682473832489
H            1.95798803516624       -1.23159517604001        0.53407879131357
H            2.30931982459083        0.49862764159754        0.61788079253968
H            2.69871638092183        0.39792714047590       -1.93209938739945
H            2.72285399929202       -1.36351889277476       -1.76095282377958
H            4.61190530477865        1.68325625045054       -1.41145069141685
H            6.92058564530121        1.82839823385790       -0.64499002033038
H            8.70617527838120        1.78119649547212        0.91952155254698
H            9.18445245702646        1.16900737983908       -0.68991184498014
H           10.05941476212007        0.63386621436313        0.76621304366092
H            6.99816209882117       -4.24599011900292        1.59438489521492
H            5.39362494205842       -3.48904848971046        1.74779245630559
H            5.96093230765697       -4.07592339608609        0.15713381641457
H            4.37472524084558       -2.34953802638447       -0.06258904165858
H           -0.12595318341629       -1.00993658834929       -2.13596776017087
H           -1.21050149023203       -0.98604446187883       -0.73006880737370
H            0.22598642107665       -2.01587466697056       -0.71673239542511
H           -3.54769312259689        2.87610297854103       -0.27241643970182
H           -2.80208328610913        3.38935619287263        2.63752818042012
H           -2.73842621779808        1.80624187274267        1.86823420646178
H           -4.29440937314876        2.62304442275683        2.05486113279273
H           -3.24188092794471        5.45402129519322        1.31793723233386
H           -3.61550192223150        5.35967638303440       -0.40869084700321
H           -4.77281209858721        4.74662394997828        0.78000559976358
H           -0.18235497251089        4.90189347376594        2.75779759491824
