72
 energy: 3.884301232782 xtb: 6.6.1 (8d0f1dd)
N           -1.58506832855704        3.10999268651326        2.27205023879796
C           -1.54326144507505        2.31495416071661        1.31432239463098
C           -2.63719500065883        2.08705098654800        0.34558381401962
C           -3.19248334096610        0.60854200322478        0.36338968713719
C           -4.18680178461608        0.18302523200999       -0.56145658187854
C           -4.83821206655997       -1.04976391104384       -0.48771525245007
O           -5.83867888438595       -1.53975020028579       -1.30706867548336
C           -6.42450139437461       -0.75162936186235       -2.32373589232730
C           -4.50839230576321       -1.98506912298810        0.51205816464992
O           -5.15808969762815       -3.18640247607307        0.46807521912016
C           -4.84789358137484       -4.17290040859361        1.42353926309291
C           -3.52828758298419       -1.59473665875134        1.40116104074808
C           -2.90418164289568       -0.34292688244381        1.33162676534354
C           -2.06328506433189        2.41224048782895       -1.05130416934836
C           -1.21198069788583        1.25635363081351       -1.59370541286781
C            0.13231364744394        1.13315608332600       -0.99965179063170
N            0.63435166268750       -0.07502795554818       -0.51720872604823
C            2.03071778684974       -0.13529969960831       -0.17117340128045
C            2.98173198891022       -0.54124501221854       -1.33109226503190
C            4.40802971616411       -0.44277003053507       -0.87635288805864
C            5.13165365668889        0.72246707142848       -1.05432338757181
C            6.42998927004898        0.83980357652139       -0.58575622412495
C            7.03547547640735       -0.21650689375852        0.06685355311913
O            8.31103353322467       -0.20896284400764        0.54287209524438
C            9.09256711877592        0.94196061167514        0.33630576148307
C            6.31047934093221       -1.41139941654875        0.26783055915179
O            6.97787327874618       -2.40385200556359        0.92937739344704
C            6.29902540584626       -3.61624065874852        1.13532668619536
C            5.01261677964651       -1.50411654069869       -0.20246993570434
C           -0.07997864722386       -1.31182349277383       -0.75144962160989
C           -3.84189668256487        3.02264234860389        0.63996156899611
C           -4.35597218429437        2.73983614501942        2.03777424375295
C           -3.53771003048992        4.53898081400160        0.50138727673441
H           -4.54017177689842        0.82594636617783       -1.36685742834874
H           -6.90954124405821        0.14173210894149       -1.91577477537383
H           -7.19079501448325       -1.37037182249635       -2.80055255955930
H           -5.69445804951031       -0.44654623959319       -3.08277594641174
H           -5.04064512634528       -3.81653391436469        2.44068583349458
H           -5.51642822313048       -5.01696494283441        1.21151982743220
H           -3.79759844422368       -4.49902250198459        1.35609774575117
H           -3.22051837507129       -2.28627614855931        2.16517259070824
H           -2.17151634684896       -0.11482398792020        2.07490476135040
H           -2.89019771120168        2.59910589221489       -1.76090819391204
H           -1.44997743002682        3.30828449237508       -0.98855358419065
H           -1.75524776068447        0.35911088835093       -1.35730713485610
H           -1.19843003663296        1.40327235568089       -2.68375839608256
H           -0.63232085353737        1.75518585432863        1.08928337468457
H            0.85142924373854        1.90979491705618       -1.17971527203987
H            2.17474014473669       -0.83129791510799        0.66466554581229
H            2.34412507950883        0.84312553913041        0.19708729463120
H            2.82771052237175        0.14900121388944       -2.17168349328800
H            2.74767744059960       -1.56433172925888       -1.63740268890240
H            4.69435973289819        1.56235562785945       -1.56781947216018
H            6.95267039816238        1.76960283271871       -0.73837561947988
H            8.67715595224182        1.81756894808088        0.84932356783746
H            9.20865073413630        1.17050313242741       -0.72800738147657
H           10.06943107943278        0.71966906304617        0.75976014161294
H            7.01294100991114       -4.26145631082254        1.65101996231168
H            5.41625788122273       -3.47891608348151        1.77072006004986
H            6.00162747020336       -4.07402227283827        0.18588695168698
H            4.44817234295042       -2.41220978374094       -0.06487587106432
H           -0.17280867425852       -1.56572826627631       -1.81885190200840
H           -1.08104129904426       -1.24701154212925       -0.31206732738827
H            0.42604472588741       -2.13630625618917       -0.24571240582597
H           -4.62232541273294        2.74138273032698       -0.08684439988217
H           -3.60047238302130        3.05742686453892        2.72334598572148
H           -4.52486121911894        1.67467642488154        2.14420759652237
H           -5.30341469914113        3.22079055121578        2.25225115299926
H           -2.76146720000741        4.80627532386835        1.21373932914285
H           -3.23322394213783        4.85745742517094       -0.49688592057954
H           -4.42198855946554        5.12295296974167        0.75476779852796
H           -0.68503634629673        3.16637785407200        2.73255153687714
