72
 energy: 67.965655102588 xtb: 6.6.1 (8d0f1dd)
N           -1.61033490339033        3.57193114308207        2.10203382960043
C           -1.35061467204586        2.69417792487849        1.24210999771462
C           -2.42278525542519        2.31493811712604        0.30522426124063
C           -3.22312810273833        0.46159304579140        0.24851508793271
C           -4.26184791150246        0.05418582604613       -0.62835354298541
C           -4.93121910377423       -1.16756891315886       -0.51618307280551
O           -5.91173030545725       -1.68255022687417       -1.29977999093175
C           -6.40296076197285       -0.98547019632091       -2.40465558444362
C           -4.61214956644930       -2.05080601434266        0.53389759991098
O           -5.40051425055256       -3.13939014986038        0.56057840708958
C           -5.19834763977117       -4.17517840165372        1.47096956229279
C           -3.59203803293291       -1.70075109329656        1.37606383215917
C           -2.92194274166317       -0.47592299684743        1.23110492045438
C           -1.79812070999790        2.56399920505603       -1.03278999301122
C           -1.11540025784799        1.26929822577608       -1.46717441764770
C            0.29198945614466        1.03466330953832       -1.11788778649108
N            0.64591008807333       -0.18402045139222       -0.53987628717501
C            2.03954150557748       -0.30662818934952       -0.17897960158382
C            3.01337473767992       -0.50416500772995       -1.36624704562099
C            4.44003342689180       -0.40799064931003       -0.89921324018195
C            5.16184515413871        0.76650148832424       -1.02645324973693
C            6.46078356329355        0.85980147094024       -0.54266444977524
C            7.07610131139651       -0.21522063063097        0.07471031253075
O            8.35049584113724       -0.21076704819454        0.56376561942200
C            9.11808999385743        0.95165008541027        0.37921563002218
C            6.34388599795852       -1.41356320729953        0.22537772790744
O            6.98470970169329       -2.42937316122431        0.86476671354550
C            6.27296134082014       -3.62296816551417        1.07253500746856
C            5.05292374512525       -1.49379107315911       -0.26764311883206
C           -0.06629064940257       -1.35786119999949       -0.99917681146705
C           -3.71888146063721        3.02831391932223        0.71237735251799
C           -4.05117388248803        2.74714575170760        2.18235044223189
C           -3.78701875918217        4.52176113805149        0.41330139646469
H           -4.49931942323683        0.71507788560817       -1.44444064243776
H           -6.88741380594719       -0.03812398734196       -2.13084983361958
H           -7.15248899944155       -1.67477015672093       -2.78782088578280
H           -5.66594908981491       -0.74782731275281       -3.17315711094161
H           -5.36502577720959       -3.84334166724557        2.49799924120460
H           -5.97602138769057       -4.89849364190167        1.20548885638248
H           -4.17173392929412       -4.60667197665901        1.38321315899923
H           -3.31734828329081       -2.35393242566784        2.19306184583806
H           -2.14284228925415       -0.29222521664119        1.97301683520643
H           -2.58303309347026        2.88036284718137       -1.71098837306581
H           -1.04208988418480        3.34222703694485       -0.88466411360751
H           -1.81208372549638        0.59721069418931       -0.93002136668588
H           -1.09850469130538        1.15151114985879       -2.55302516988258
H           -0.37087428337984        2.22118331647327        1.18197664896755
H            1.07473064461438        1.69274676038943       -1.47681366186115
H            2.16398446357331       -1.10527001122879        0.54317484480248
H            2.34677971840355        0.58972632088760        0.36308504811413
H            2.80917221613583        0.31464966563625       -2.07039044736310
H            2.82366693527465       -1.48760784296240       -1.81808443393018
H            4.72022410187275        1.63460929653976       -1.49550350246931
H            6.98666704555354        1.79249417444549       -0.65826563566167
H            8.70412039515343        1.80606108375353        0.92493799925071
H            9.20915074937539        1.20586794465992       -0.67433912824256
H           10.11170274771939        0.74308496041122        0.76803871270548
H            6.95380530459944       -4.27965826335452        1.62584100306072
H            5.38483015138482       -3.45543872400178        1.69787249368716
H            5.97513357540919       -4.08934011887018        0.12268312153324
H            4.49353256076762       -2.41153097616746       -0.17098639022941
H           -0.05702917322289       -1.43734586730839       -2.08943176860776
H           -1.10313368617540       -1.31081934561542       -0.64925906086266
H            0.38776798794925       -2.24669221560765       -0.56194343406872
H           -4.53862437305372        2.51841257522097        0.18287116449409
H           -3.47761583638548        3.38827198170228        2.79051014673998
H           -3.88615189814972        1.71193095141165        2.42027339985520
H           -5.08606401663517        2.85929219225830        2.45120277562331
H           -3.06628714426124        5.00429347486872        1.06494541411742
H           -3.59227207526483        4.74814137104647       -0.63307645584449
H           -4.75147536251313        4.94969799930660        0.64973673730778
H           -0.79083830609450        3.82244206777030        2.62870346009443
