72
 energy: 48.655267745719 xtb: 6.6.1 (8d0f1dd)
N           -1.25407672986776        1.90495604116788        2.23774246997940
C           -1.30485360167621        2.13339552136409        0.98211640059871
C           -2.35152026270089        1.77511601782752        0.07987526489275
C           -3.11680992616727        0.55924043109376        0.25101863302374
C           -4.01169442365105        0.11190409669386       -0.73976769266173
C           -4.75417885827095       -1.03000868026998       -0.56583454661713
O           -5.65442719002312       -1.54484209318056       -1.46000784115264
C           -5.92269269945214       -0.81082009557786       -2.61801879681709
C           -4.63019881485118       -1.77732117158725        0.61648527628973
O           -5.41450523287645       -2.89162261279390        0.66233097067380
C           -5.33378947351439       -3.67955215011744        1.81269435236788
C           -3.75456029810607       -1.34801196956746        1.59304336811706
C           -3.02301576818057       -0.18811993731158        1.41848088097745
C           -2.06464983799736        2.22933973685379       -1.31637926490604
C           -1.13367920646096        1.24820171462883       -2.09866740421220
C            0.24650228471315        1.18786597780387       -1.60279492795497
N            0.79769977440858        0.09679031754057       -1.01089686375358
C            2.14101133865085        0.13637301450607       -0.47898106436878
C            3.12209623365049       -0.52488987077467       -1.46285733225794
C            4.52857980624231       -0.43346769645669       -0.95754954728524
C            5.27346086576300        0.71157374073648       -1.15360558427019
C            6.56118913165671        0.81191968867941       -0.64661311190967
C            7.12230838021385       -0.23389996213979        0.06594930064816
O            8.38010428576448       -0.25118677934900        0.58836713582174
C            9.19225394578327        0.87438280213817        0.38246415497308
C            6.36150681820271       -1.40447079056589        0.28088061585135
O            6.97817097797338       -2.38039516229160        0.99666135913768
C            6.28535820536941       -3.58147194384228        1.21947260257584
C            5.07839509553594       -1.48193570245676       -0.22683143802083
C            0.05140931907490       -1.11161729703196       -0.76192585831026
C           -4.39812146219239        2.91882790690774        1.10205063647883
C           -4.82431228084643        2.43346611137118        2.42477988016288
C           -3.77403777237103        4.28336523371968        1.00535920591702
H           -4.14679601253960        0.68839513537553       -1.63645701084629
H           -6.27057027680030        0.20480051556314       -2.39154655090168
H           -6.69786644110763       -1.36518450417413       -3.14214681248594
H           -5.04298939114818       -0.74987499510517       -3.25764936443239
H           -5.63443800898982       -3.12508954427079        2.70733928663129
H           -6.01825322108648       -4.50711510452701        1.64303768002733
H           -4.31952935144597       -4.05381235443398        1.95714254128717
H           -3.61385461939104       -1.90569401323033        2.50115663609168
H           -2.34398922636840        0.14941036415146        2.18163031209410
H           -2.96150209647255        2.31369211420567       -1.91780332407324
H           -1.54877421311835        3.18910412044449       -1.32684630055832
H           -1.59100123630148        0.26611075665902       -2.10647811123590
H           -1.14516649124543        1.63091685045710       -3.11395437871911
H           -0.46934739080063        2.59984604150197        0.43878534963270
H            0.88761729052075        2.04193585573476       -1.72493515035945
H            2.21586060426801       -0.36479997865866        0.49274390602938
H            2.42100015455331        1.17267868138214       -0.31423006556936
H            3.01672695539709       -0.00224668012171       -2.41297267577568
H            2.83969974134115       -1.56567958832830       -1.61472828706481
H            4.85845255747630        1.53386580941527       -1.71688731563632
H            7.12150593469775        1.71498944626839       -0.82621940841100
H            8.75723924051480        1.77359018875909        0.83309522289652
H            9.36700138581657        1.05466360847052       -0.68414218850345
H           10.13710312734037        0.64051602629517        0.87546430799833
H            6.97238562377616       -4.21095356392857        1.78422841175914
H            5.36861973511942       -3.42291619079489        1.79913200414548
H            6.03509819144671       -4.08150735711495        0.27787446115080
H            4.48048604431155       -2.36377464670108       -0.07060040608302
H           -0.13279649428286       -1.61531156296590       -1.71460868381910
H           -0.89908878584172       -0.92602331265121       -0.25116854683694
H            0.63175696247293       -1.76699839718721       -0.11408625224080
H           -5.10805791216025        2.68119962125551        0.32141947249472
H           -4.21606479929745        2.85321919121434        3.21658488687165
H           -4.80386041130213        1.35430687802061        2.45282338326752
H           -5.86762266979669        2.72575750522434        2.58295253045533
H           -2.89402317661398        4.32463277276257        1.64536441438947
H           -3.49779490753736        4.56951897131639       -0.01324674486674
H           -4.47937745293295        5.03299390344273        1.38489521672798
H           -0.37434159626965        2.17388671773662        2.67276121941031
