72
 energy: 50.439985215783 xtb: 6.6.1 (8d0f1dd)
N           -1.11352046746058        1.72647765045180        2.16465697145945
C           -1.21180819102576        2.10980266653974        0.94462462932727
C           -2.19008640823184        1.68299400534786        0.01371705370736
C           -3.04770969488795        0.54317892225819        0.23437218381706
C           -3.92933178379821        0.07101798048840       -0.76564881034224
C           -4.72628317838858       -1.03162295515099       -0.56508706039975
O           -5.60476322746467       -1.55110093387930       -1.48518068865569
C           -5.78975704621951       -0.87384261707326       -2.69290498674128
C           -4.69063359178350       -1.72803473217777        0.65736478555622
O           -5.52411379598924       -2.81452416001674        0.72747740811882
C           -5.50872544356036       -3.55623888387662        1.91293442285344
C           -3.84025237950976       -1.28079561837139        1.65121069713358
C           -3.05323509459744       -0.15970092185228        1.44964277400012
C           -1.99237846377922        2.19893605745580       -1.34685325872942
C           -1.07775745555758        1.23338101492173       -2.23456803588221
C            0.29912308449744        1.13629657296947       -1.80434969279724
N            0.78020930065252        0.18218853990014       -0.98480064839017
C            2.15109411743064        0.19602649366287       -0.55028655243692
C            3.13841443320198       -0.49884411889832       -1.51695592362472
C            4.54372752663760       -0.41445463024803       -0.99674753771483
C            5.31191786136706        0.71488879560381       -1.19626896745058
C            6.59542626478992        0.80715984458490       -0.67689741171458
C            7.13559812072600       -0.23417022277104        0.05328341017282
O            8.38175752872439       -0.25375267744787        0.60169297263450
C            9.21411558102431        0.86148285203187        0.40317059519037
C            6.35662339405047       -1.39322104498604        0.26912027217961
O            6.96236246533480       -2.37077539845934        0.99673981921565
C            6.26413316773285       -3.56713020825163        1.22552081214243
C            5.07918610135109       -1.46490594033713       -0.25406623212853
C            0.06168401233170       -1.05443525397888       -0.79144592215426
C           -4.63068506851470        2.96628144656798        1.25774823775354
C           -4.94559601675489        2.38573598340397        2.56460771912811
C           -3.87469214564199        4.24517259771659        1.13426906451436
H           -4.00892981383802        0.59890587203571       -1.70161301349131
H           -6.10967316564379        0.16383763362534       -2.53869060190738
H           -6.56476121614517       -1.42182389174778       -3.22649376367312
H           -4.88002285606990       -0.88154369795715       -3.29547664455222
H           -5.83064445420648       -2.96495230180772        2.77887250438207
H           -6.20871808081513       -4.37376345814974        1.75230975768151
H           -4.51310374856495       -3.95628406842935        2.11754523239739
H           -3.76280486413359       -1.80883365512674        2.58953561546476
H           -2.39235556656335        0.18269743195754        2.22657455665676
H           -2.91475908882513        2.27737561802984       -1.91236512326239
H           -1.49162287528468        3.16690436123108       -1.34908038638193
H           -1.56648015543178        0.26399201392013       -2.25764147207789
H           -1.09513918331030        1.70006474177517       -3.21317945506441
H           -0.48682310911701        2.81162577333125        0.50914014686454
H            0.93230630705916        1.98906110224465       -1.90976574736057
H            2.20793683321006       -0.28364315096933        0.43016097064516
H            2.45332011089983        1.23161583054039       -0.41505234830942
H            3.07056318442802       -0.00524760688166       -2.48308396518666
H            2.84781844203284       -1.53936435268906       -1.65540621055686
H            4.91487646195780        1.53787002208833       -1.76902772516376
H            7.16765634079007        1.70293848156755       -0.85491857398884
H            8.78333891898620        1.76806752533246        0.84203240395982
H            9.40938843012606        1.03337179525783       -0.66146367460403
H           10.14609862735954        0.62001128289918        0.91554674980911
H            6.94302092823790       -4.19224518705857        1.80438893088254
H            5.34492878539336       -3.40081890677387        1.79811939868457
H            6.01808298584413       -4.07782273028250        0.28844221999964
H            4.47611799234630       -2.34500408559800       -0.09719246675083
H           -0.11078776771893       -1.56408623812743       -1.74856766991947
H           -0.89189100064140       -0.85881009172686       -0.29345881836673
H            0.64628669227945       -1.70031967764506       -0.14029581419719
H           -5.27957102903443        2.68361468769921        0.44841151147710
H           -4.34745923255702        2.84102266000719        3.34352238674461
H           -4.79833280054423        1.30414539940388        2.57587599381383
H           -6.00572557084646        2.56066584343661        2.77116471847367
H           -2.97421323705978        4.21979748623604        1.74859866042151
H           -3.60781467782351        4.50278731142393        0.10482088020695
H           -4.50178958520068        5.05270500320220        1.54552931360274
H           -0.29975849198375        2.08489689912098        2.65885224490216
