72
 energy: -1.201533155358 xtb: 6.6.1 (8d0f1dd)
N           -1.48888617943965        2.55402459214220        2.33231232026219
C           -1.50241111625347        2.14596860425612        1.13848976310133
C           -2.71078810875840        2.01824503937991        0.23825936123807
C           -3.26601454236588        0.62467367982656        0.29904957869225
C           -4.22686120385932        0.22142138649662       -0.62943108298210
C           -4.82248281569556       -1.01872044869883       -0.54445380972605
O           -5.77367966096970       -1.51177517605213       -1.38897802471524
C           -6.27190980050126       -0.66089778477517       -2.38454174197532
C           -4.45540992377332       -1.89786120769222        0.49155326530050
O           -5.10911064976823       -3.09358277624561        0.47506293308422
C           -4.84277864231768       -3.98942843372970        1.51616265315721
C           -3.50534551056099       -1.49573879179588        1.40859432435834
C           -2.91840365786195       -0.24164399320645        1.31263069460193
C           -2.19616905939940        2.29243193995816       -1.21863632005798
C           -1.24032747516753        1.20799706945490       -1.77662407456793
C            0.07029250003640        1.17173002490736       -1.07364358821016
N            0.69687170254298       -0.01836304094733       -0.68238878985398
C            2.04990223772510        0.00201826708869       -0.24206269846004
C            2.99128138388468       -0.54369780620755       -1.32957839883786
C            4.40732236892306       -0.43866855592975       -0.87524066208335
C            5.12929408094960        0.72302682539490       -1.07310736892950
C            6.43321185131383        0.83303908387000       -0.61227684211300
C            7.03130433627325       -0.21712275826517        0.06188009069006
O            8.30576005083590       -0.22284643867060        0.54541910664922
C            9.10222583341895        0.91311303730752        0.33597588605474
C            6.29668326225473       -1.40203923349697        0.28440912189770
O            6.96630940827767       -2.38589085099450        0.95195479984565
C            6.31327354051996       -3.60847468080639        1.17291714387855
C            4.99802424738297       -1.49229515120086       -0.17935166047501
C           -0.01185025830440       -1.26378672981436       -0.65112735914652
C           -3.95517415386838        2.98623153306144        0.69035174555287
C           -4.57555556733249        2.67881201293591        2.05792197590115
C           -3.49904128160854        4.45591565274817        0.66167628189381
H           -4.52175250127815        0.89429446052724       -1.41574772299481
H           -6.69499670131190        0.25576475038932       -1.95861808273280
H           -7.04957181989700       -1.22917916622733       -2.89119726722782
H           -5.49578047133435       -0.39084457006797       -3.10436708821505
H           -5.08069850199198       -3.55448821565592        2.49223652199144
H           -5.48456690044647       -4.84765554818270        1.32896688271906
H           -3.79471507637409       -4.29904480850163        1.51071370745369
H           -3.20916832794044       -2.14191222419166        2.21679666916672
H           -2.19488610285125        0.06313490200911        2.05094647154085
H           -3.04180869091655        2.39583434415737       -1.90294878212985
H           -1.63385998856190        3.22742555001010       -1.23315768785252
H           -1.73420126066509        0.23902865840415       -1.74069793605505
H           -1.06954655560794        1.43891643865532       -2.83738659627253
H           -0.58863072469170        1.88591892083442        0.58822443239853
H            0.72312433028185        2.01772143509972       -1.14848153381194
H            2.17620889251174       -0.58854705583090        0.67513776391528
H            2.32737384571338        1.03084804898761       -0.00823395167992
H            2.83164982748839        0.04533958304087       -2.23426403359122
H            2.72516648797711       -1.58047168661008       -1.53846548680781
H            4.68444190882677        1.55157102131510       -1.60306004667800
H            6.97720023667781        1.74631772373555       -0.79444031510505
H            8.67900250334893        1.79991194826655        0.82008102299605
H            9.24407078060795        1.11606338873506       -0.73113844175977
H           10.06593517323489        0.68124238482730        0.78912507968834
H            7.03533810361609       -4.23824253446336        1.69140307479158
H            5.42166286632380       -3.48532056337731        1.79865193209556
H            6.02798017972813       -4.08911007808519        0.23017470750013
H            4.42322289658166       -2.39008077954821       -0.01870745795145
H           -0.19004550896620       -1.66012413122845       -1.66064999883081
H           -0.98066928058045       -1.15778359724205       -0.14764133838705
H            0.57819476838765       -1.98467365572064       -0.08757458968704
H           -4.76155068288027        2.88221582932974       -0.05262847991533
H           -3.87286786367579        2.88926614511520        2.85756027290382
H           -4.87528220197441        1.63918259673934        2.10627770233745
H           -5.47149521832694        3.28338740404324        2.23442443469930
H           -2.67643147221200        4.58194648525090        1.35933484413431
H           -3.16454727975239        4.74393315319399       -0.33358585928775
H           -4.29931106058311        5.13814060953954        0.96015802777709
H           -0.55107327141812        2.60120512385672        2.72759059257193
