72
 energy: 48.849520039835 xtb: 6.6.1 (8d0f1dd)
N           -1.02222240621852        1.64409398748882        2.15050146452415
C           -1.14239423459635        2.04765530902295        0.93224697594757
C           -2.07359194842528        1.57744564434345       -0.02182754333259
C           -2.98224104395341        0.49126668358827        0.21349123033491
C           -3.85651740619586        0.01795873724428       -0.79047761073134
C           -4.71490063766108       -1.03568129373186       -0.56780446031470
O           -5.59070683822940       -1.54446110779909       -1.49521210041914
C           -5.67824841303393       -0.93055260181352       -2.75090991035258
C           -4.73324644806769       -1.68599028372521        0.68438219156432
O           -5.59775194619696       -2.74558035209595        0.79192694862700
C           -5.64423925790134       -3.44590827405714        2.00478356256452
C           -3.89676262793551       -1.21795713780669        1.68411259612497
C           -3.04306202486744       -0.15499600884775        1.45727783769486
C           -1.93128776780964        2.14516493860630       -1.37155743709156
C           -1.02053041433901        1.21948207953504       -2.33450482612497
C            0.34331040406177        1.13681837889197       -1.86259817310618
N            0.80521837052619        0.17529688512587       -1.04845640096094
C            2.16962005134435        0.22182094119956       -0.59030451090095
C            3.14345458539198       -0.48069595901363       -1.56114548878225
C            4.54634058393987       -0.40460783776758       -1.02999965699088
C            5.32148607062988        0.71985458916287       -1.23996133769006
C            6.60229260560529        0.80950664502496       -0.71182551541795
C            7.12711763994687       -0.22768966366216        0.03795584815659
O            8.36464399880981       -0.24918278210583        0.60284471631751
C            9.20625338957936        0.86180902239746        0.42548438779538
C            6.34410277298732       -1.38522663332972        0.25548655518977
O            6.94289926282950       -2.35834869608267        0.99382002867424
C            6.24631311226410       -3.55567983040802        1.22812571668596
C            5.06915201452884       -1.45375596342136       -0.27546247411810
C            0.07556422240613       -1.05342756182431       -0.83540964717849
C           -4.89394670688276        3.10181336142049        1.38701705927457
C           -5.08774835032395        2.41723846079718        2.67555605234285
C           -3.97080429456139        4.23995676820145        1.23167828831430
H           -3.87072397907451        0.49523733897435       -1.75667992157816
H           -5.97791457442258        0.12135919877920       -2.67394915916921
H           -6.44790551232672       -1.48129638164158       -3.29095594612967
H           -4.73506155749252       -0.99681680427115       -3.30736261517084
H           -5.98794451776441       -2.81207090125856        2.83041961380975
H           -6.36263798387018       -4.25016219208813        1.84849399371789
H           -4.67104658404318       -3.87849522839966        2.26518376193934
H           -3.90066354428157       -1.68101396234086        2.65997821757712
H           -2.39457963440174        0.19819776480205        2.24113995471289
H           -2.88319495375393        2.25267917916853       -1.88802128539759
H           -1.44988818976216        3.12325700747928       -1.34639254864695
H           -1.50813488856303        0.24909252323891       -2.39057782231574
H           -1.04314624224111        1.70015802658804       -3.31266476488009
H           -0.49487320197652        2.85718721642870        0.54126828352615
H            0.97508060437742        2.00616777679624       -1.95892008902302
H            2.22891018537621       -0.25516688517713        0.39083050342325
H            2.47715772319829        1.26362117615389       -0.47807432686727
H            3.08230760674580        0.01276393456219       -2.53334997198735
H            2.84325081714021       -1.52234453049018       -1.68516263034384
H            4.93644598317439        1.54003055607175       -1.82746575423201
H            7.18311871291267        1.69901676946187       -0.89687120811283
H            8.77369897149767        1.77117841331324        0.85618164544762
H            9.43332770942780        1.03328556407000       -0.63216068257260
H           10.12579712716759        0.61646014184384        0.95470957137317
H            6.92236444920530       -4.17460759676139        1.81601826301617
H            5.32658258928508       -3.38590302788715        1.79807180910780
H            6.00512316515090       -4.07297412534197        0.29322388789854
H            4.46320054320850       -2.33253627406865       -0.11707276113254
H           -0.10936904757577       -1.57444399176256       -1.77975089969581
H           -0.87958464045221       -0.85329090732795       -0.34790029366224
H            0.65801255421693       -1.70582039311813       -0.19004831810932
H           -5.48180428116871        2.77622799787107        0.54673995244492
H           -4.45420943131049        2.84426826331811        3.44894564789823
H           -4.84721217083282        1.35310295590012        2.57637468322823
H           -6.13312141051407        2.47174657803082        2.99823982091384
H           -3.06408498652400        4.07863206252603        1.81582115018192
H           -3.70481224970684        4.39265359460792        0.18803780885784
H           -4.42559952832919        5.16975498756702        1.59898326334163
H           -0.30253275650398        2.13271456676872        2.67797112811057
