72
 energy: -5.859790438962 xtb: 6.6.1 (8d0f1dd)
N           -1.50042875796649        2.73002871782219        2.27367349634190
C           -1.54328434764163        2.15235458036389        1.15669531075445
C           -2.73900193705732        2.05301692241619        0.25027215380752
C           -3.30246900981420        0.64410614970482        0.32015397768295
C           -4.28309493810606        0.24015520742296       -0.58878301280132
C           -4.84141120300052       -1.02177330932527       -0.53404142308448
O           -5.80734792665081       -1.49464958364130       -1.37089367865688
C           -6.36503106754006       -0.62222396803874       -2.31878726722138
C           -4.41209091929991       -1.93233085489166        0.45572472282408
O           -5.02040859280047       -3.15078348195101        0.42860149246934
C           -4.70788445578078       -4.07477101241316        1.43776917224854
C           -3.44219118220589       -1.53221248361531        1.35372883338718
C           -2.89379287543746       -0.25655498176440        1.28518175111328
C           -2.19494316331078        2.29925013053332       -1.18896623106809
C           -1.25772745283470        1.18634622003508       -1.69139744733286
C            0.02019336235361        1.13934044133797       -0.93512941054040
N            0.64842383378090       -0.04007999538221       -0.58691094600785
C            2.01397678560960       -0.02575404729866       -0.17951249562742
C            2.94772485348385       -0.54050775337516       -1.29342720359238
C            4.36987121589830       -0.43373034660415       -0.84809394375865
C            5.08800609735081        0.72998955846561       -1.05089259481743
C            6.39759735507440        0.84066740040415       -0.60690459091695
C            7.00514538172464       -0.21026786573162        0.05695216980468
O            8.28239083360358       -0.21365164235746        0.53142064735493
C            9.07658949225057        0.92525801632129        0.32433141175230
C            6.27578397560186       -1.40008572852955        0.27964489477362
O            6.95462451848508       -2.38318827838967        0.93553156887391
C            6.31303742857536       -3.61213146070123        1.15649268899464
C            4.97227282080524       -1.49246239171607       -0.16847152237724
C           -0.04115038426236       -1.29518868409513       -0.62975945993817
C           -3.89005692922498        3.05565304380193        0.61166237765667
C           -4.51532837365948        2.75076078420634        1.97309325669460
C           -3.41802014937257        4.51123160005567        0.57848303881053
H           -4.62427127812296        0.93266283319541       -1.34023860267090
H           -6.81322518343906        0.25696320144631       -1.84457135476867
H           -7.14245588996154       -1.19735719298560       -2.81941172801178
H           -5.62442792179919       -0.29774164882676       -3.05736701380597
H           -4.93287606858904       -3.67649513204581        2.43250464464763
H           -5.33950611097325       -4.93996474617412        1.24324853469421
H           -3.65608316364780       -4.37757623679855        1.39861438967804
H           -3.10494100430812       -2.20082859853416        2.12922259401964
H           -2.15771222508607        0.03210304987915        2.01931791957337
H           -3.03045024105893        2.38921211054541       -1.88681488204735
H           -1.64480551526843        3.24167174275238       -1.20633000125039
H           -1.78737841954393        0.23595456721053       -1.65074178088913
H           -1.02329359303866        1.39253729030993       -2.74410663303172
H           -0.66155622370300        1.70856011365731        0.63789426547486
H            0.66335484697927        1.99915848705933       -0.99006165204246
H            2.13587525056942       -0.64896881248444        0.71302084065918
H            2.30703456107799        0.99436151144452        0.07977811841968
H            2.78146225150331        0.06406775590215       -2.18712611494371
H            2.68998203312071       -1.57532636378612       -1.52238343923747
H            4.63605128276359        1.56022546961184       -1.57341063141459
H            6.93728990062979        1.75532961367676       -0.79356754427565
H            8.65728295130237        1.80816282556377        0.81853056349022
H            9.21201579364154        1.13610669679874       -0.74194432477180
H           10.04201233469050        0.68992876626142        0.76966132573183
H            7.04826134998676       -4.23629176895960        1.66209812888630
H            5.43242698896386       -3.50176984797840        1.79863957830463
H            6.01859307039924       -4.09141861996066        0.21643064331127
H            4.40533260999932       -2.39713721772880       -0.01105588282607
H           -0.21316557567788       -1.62978885351311       -1.65958678066447
H           -1.00821858372536       -1.22315404411644       -0.12195066125624
H            0.56511651181823       -2.03684843068118       -0.11486147481536
H           -4.67322822644379        2.94084712284314       -0.14870775056389
H           -3.78580897678970        2.89466331065021        2.76320795468757
H           -4.87618615450310        1.72655875741018        2.00953274182776
H           -5.35829479982005        3.41552486427026        2.15611743087522
H           -2.61706599500861        4.66069143862074        1.29640687859252
H           -3.06746117902693        4.79820867027452       -0.41011251677708
H           -4.24099926583228        5.17194795270901        0.84537004151752
H           -0.58898839585890        2.72970103657306        2.73159184896707
