72
 energy: 50.062988073242 xtb: 6.6.1 (8d0f1dd)
N           -1.05195605795364        1.62973211878732        2.13785013492560
C           -1.18161089145670        2.09241260547816        0.94141252084985
C           -2.13629066403622        1.64174995674138       -0.00389865356256
C           -3.01813344828119        0.52327930407350        0.22441823073541
C           -3.89161031622853        0.04372411860522       -0.77811444891460
C           -4.71534115121017       -1.03895006436061       -0.57119782491537
O           -5.58064914451022       -1.55462239137286       -1.50245400435056
C           -5.72297031596414       -0.90420046167880       -2.73117683410293
C           -4.72282781654206       -1.70401354549158        0.67337464132372
O           -5.57417765225371       -2.77547541462677        0.76506979334397
C           -5.59334079948034       -3.49594754941177        1.96745047127637
C           -3.88057552649306       -1.24311535160642        1.67062637162968
C           -3.05824062881296       -0.14988264718972        1.45483790107349
C           -1.95957009074709        2.17786007212810       -1.35665767874749
C           -1.04502119798164        1.22095417444824       -2.29281418151582
C            0.33769804520574        1.10956119860939       -1.89256301290981
N            0.79602814140640        0.18669540315839       -1.03279513806925
C            2.16571267979438        0.22210916800378       -0.58476974372315
C            3.14310593182021       -0.48735544595177       -1.54790783037431
C            4.54479592736669       -0.40763369084713       -1.01718025184177
C            5.32260484532863        0.71612496543715       -1.22247576927480
C            6.60407961707513        0.80794304868734       -0.69636745715589
C            7.13243767423501       -0.23200364176617        0.04422084518899
O            8.37627312266681       -0.25418909953680        0.60181378732018
C            9.21641457605019        0.85647093916172        0.41549496968350
C            6.34779484380500       -1.38781023215700        0.26060108173668
O            6.94936509503076       -2.36313362200844        0.99559304045905
C            6.25275086967261       -3.55934257089586        1.22984915306909
C            5.07117409384195       -1.45726241432168       -0.26638915297372
C            0.06910469024605       -1.04376725094798       -0.82512852339029
C           -4.74566534563914        3.00691253060069        1.32262942862847
C           -5.01412868253429        2.38786223408027        2.62586077963209
C           -3.91688062088844        4.23226681993670        1.19247748264392
H           -3.94138079049232        0.54783960871255       -1.72815784444388
H           -6.03135097661283        0.14324896131719       -2.61667938580240
H           -6.49724371236173       -1.45234845910985       -3.26695831569798
H           -4.79902861121267       -0.94557597124540       -3.31363395287496
H           -5.92596786945009       -2.88172334430987        2.81338886366353
H           -6.30298858849684       -4.30821416195685        1.81359602985664
H           -4.61022839765657       -3.91360671613126        2.20311503118140
H           -3.83406805930771       -1.74997729846551        2.62434222745820
H           -2.41588915751247        0.20188121342607        2.24309642232710
H           -2.89296558818471        2.26762662423923       -1.90544150193624
H           -1.46429918613413        3.14796926329450       -1.34757358889718
H           -1.55077266222878        0.26134787524949       -2.32848083420052
H           -1.07034200416890        1.70354181281839       -3.26609301605696
H           -0.51275854266220        2.90900322349671        0.55667148169707
H            0.95321292285843        1.99963539099415       -1.95786949124488
H            2.23144709860584       -0.25009412069084        0.39796535580648
H            2.46797331322744        1.26072126935766       -0.46375950474772
H            3.08818008478091       -0.00403737324579       -2.52061057748437
H            2.84029739478857       -1.52754861375888       -1.67485233571556
H            4.93368304526149        1.53797870474274       -1.80260286180285
H            7.18214476832288        1.69954679577462       -0.87644006085829
H            8.79010474597905        1.76720610118871        0.85008584024237
H            9.42886873868340        1.02764306299632       -0.64663439464234
H           10.14122743703067        0.61486658777479        0.93884935531002
H            6.93043088094220       -4.18021873863486        1.81432646211589
H            5.33302967067915       -3.39110894141790        1.80114748255350
H            6.00928218345501       -4.07543569890229        0.29492552317872
H            4.46666785061224       -2.33679155625514       -0.10776364872084
H           -0.10899101420440       -1.56012018652532       -1.77594713633870
H           -0.88469426889152       -0.84198375607025       -0.33170973286691
H            0.65513657955133       -1.68749361761945       -0.17449887625874
H           -5.37125813464319        2.71128551724033        0.49631096691541
H           -4.41105029332255        2.84387689005063        3.40519116875942
H           -4.82584609828081        1.31244345754007        2.60923556690058
H           -6.07661500334914        2.50630904749102        2.86635324186078
H           -3.01033119809233        4.15886680311358        1.79412125439976
H           -3.64702975512273        4.45973279387451        0.15889878072556
H           -4.47789532787510        5.09756789452104        1.58794707162606
H           -0.29298012783275        2.07289918736713        2.66212563093318
