72
 energy: 38.764688231955 xtb: 6.6.1 (8d0f1dd)
N           -1.33358023924383        2.07367534641379        2.28386763332066
C           -1.36844454819967        2.15296145692051        1.02010192270488
C           -2.50018962334745        1.86931939292818        0.13819739221607
C           -3.16363788866219        0.56616178664538        0.26036231369180
C           -4.07141553081416        0.14594263110545       -0.72067475192332
C           -4.77151205944381       -1.02733220398856       -0.56631632783544
O           -5.68560510557010       -1.53291528930665       -1.43840512815333
C           -6.01827882716085       -0.76633664066720       -2.55855678610463
C           -4.58045975979360       -1.80924530030708        0.58562888276251
O           -5.33720047518624       -2.94776481992816        0.61033658677140
C           -5.20102213915063       -3.76570853889498        1.73337656159489
C           -3.68450879598033       -1.39342522806216        1.54999647764723
C           -2.99304392159464       -0.20451447693001        1.39148458984360
C           -2.12239130902619        2.25500843979467       -1.29374565753479
C           -1.17709189151560        1.25732538569252       -2.02347670215291
C            0.18968489689711        1.20753672978130       -1.44341238512310
N            0.79058448705141        0.04609315146566       -0.95808666724784
C            2.12677871469430        0.09072459018888       -0.42109518816146
C            3.09824175036441       -0.53852432369793       -1.42887640014755
C            4.50362641061569       -0.44312201297998       -0.94118962073262
C            5.23762185064534        0.71074294346223       -1.13111107645184
C            6.52852771101715        0.81575974636709       -0.63292348610335
C            7.10101859375447       -0.23212603219264        0.06861176737758
O            8.36609786896430       -0.24533113327776        0.57932407464182
C            9.17023220573085        0.88415360839953        0.36902451252186
C            6.34964847016280       -1.40660323817087        0.28947598380394
O            6.98555367452193       -2.38843094458668        0.99058622401149
C            6.29727407210040       -3.59252660546166        1.21024403788259
C            5.06318159547652       -1.48894818825801       -0.21107286981323
C            0.03876166433147       -1.15914397106382       -0.73408187534088
C           -4.22280490406463        2.89534428965544        0.96917338140627
C           -4.74049805522991        2.48283103983895        2.31188818398747
C           -3.70225358922370        4.32278822886542        0.90359709740597
H           -4.24520473751793        0.75797497594401       -1.59044943330400
H           -6.38790071404752        0.22292494499128       -2.27225453041325
H           -6.79475647755287       -1.32315453859840       -3.07730569520347
H           -5.16382531853482       -0.64830451208601       -3.22289468811630
H           -5.48301623949401       -3.24230167822670        2.65253579691722
H           -5.87175832158898       -4.60372603460640        1.56248511949433
H           -4.17383458083199       -4.11824383804196        1.83389511257913
H           -3.50247145648104       -1.97820566249392        2.43601521681192
H           -2.30370462705825        0.13244695517090        2.14631934610096
H           -2.99805478054275        2.34003865621754       -1.92333122683621
H           -1.59138762431751        3.20628740539295       -1.31050864912378
H           -1.61631482049576        0.26240944314979       -2.00343914145761
H           -1.16732966356497        1.57823885307197       -3.07642086283088
H           -0.48815191726241        2.41200798978155        0.43165362307704
H            0.85235680648731        2.03919718740518       -1.56506983752638
H            2.23424852101082       -0.42472452370490        0.54340449964962
H            2.38676446351887        1.13123934786006       -0.24050449200936
H            2.96918565293275        0.00576439652783       -2.36527175524669
H            2.81525346657170       -1.57818034895699       -1.59208768974271
H            4.81259150997959        1.53468956036487       -1.68443994351601
H            7.08363782194368        1.72324578371056       -0.81109320722230
H            8.73657482805542        1.77996755240438        0.82797653944977
H            9.33323800005934        1.06959026510638       -0.69859279437784
H           10.12423195997938        0.65603514159215        0.84828435137778
H            6.98992255678493       -4.22602429957729        1.76257328408048
H            5.38541338297651       -3.43907718224804        1.79882481507035
H            6.04011355643576       -4.08400917666380        0.26555248260267
H            4.47008859024591       -2.37423446165369       -0.05381860290069
H           -0.14820736970553       -1.64820365177605       -1.69458939567152
H           -0.91637755676997       -0.98623626490286       -0.22205608777716
H            0.61675280388391       -1.82791378992331       -0.09968714922689
H           -4.99223135403625        2.71786702988213        0.21823665667706
H           -4.11479705642757        2.84636145331777        3.11704690353879
H           -4.84821740718317        1.41230475298436        2.36133460688337
H           -5.74567019028534        2.88645316843987        2.47394695574603
H           -2.83628036075503        4.38938698449968        1.55745372427281
H           -3.40937669221755        4.60784933716865       -0.10906997858864
H           -4.44416766270753        5.04687034291253        1.26268589896935
H           -0.42250246252277        2.29071425496281        2.69573550504833
