72
 energy: 46.883548111399 xtb: 6.6.1 (8d0f1dd)
N           -1.27764400637617        1.97162201976924        2.24080508143323
C           -1.32120342765665        2.15469560733669        0.98191284095030
C           -2.39677836310789        1.80561254029154        0.09502795181684
C           -3.13170449564065        0.56334579454489        0.25462934046044
C           -4.03152727512968        0.12224332119766       -0.73219370755316
C           -4.76028293481318       -1.02972195083813       -0.56670784170788
O           -5.66605336387788       -1.54206066672984       -1.45329589120902
C           -5.95521252227370       -0.79572690386556       -2.59873236833131
C           -4.61353027767757       -1.78778226787403        0.60537460456028
O           -5.38685307977747       -2.90970313135381        0.64411220242083
C           -5.28892408049559       -3.70759530973448        1.78576649654471
C           -3.73166781228495       -1.36262070348710        1.57734096085770
C           -3.01290856899688       -0.19363169753717        1.40918683557404
C           -2.08441897514511        2.23868136012920       -1.31121448095240
C           -1.14950624799111        1.25366673757759       -2.07535565646009
C            0.22793616362366        1.19670807281330       -1.55241601962085
N            0.79478103380170        0.08178825365678       -0.99385062630737
C            2.13897675032336        0.12221090117699       -0.45967261877978
C            3.11731482968428       -0.53085050452102       -1.45123622238272
C            4.52251229872257       -0.43861962066324       -0.95418652002993
C            5.26267628312573        0.71032976239595       -1.14665854167068
C            6.55137867076326        0.81258403240209       -0.64128439765835
C            7.11695614217240       -0.23384986544194        0.06812658423190
O            8.37874466171320       -0.25081471332313        0.58738246124798
C            9.18579703109097        0.87690328629878        0.37858005698382
C            6.35911486533072       -1.40621031473249        0.28441893416192
O            6.98132871019832       -2.38377615315840        0.99442540901955
C            6.28975430805902       -3.58548892195114        1.21656993729802
C            5.07517435826522       -1.48556938697223       -0.22160910099948
C            0.04681463932249       -1.12635276981444       -0.75267569723163
C           -4.34093516705425        2.90978099220355        1.05927601331064
C           -4.79689250963302        2.45040107277959        2.38816011994615
C           -3.74952010152416        4.29467794637872        0.97050978472656
H           -4.18132267120543        0.71031822010652       -1.61740735598741
H           -6.31111508267793        0.21169033516064       -2.35329021012790
H           -6.73069171719532       -1.35077591058137       -3.12155372333883
H           -5.08340019192354       -0.71673733814355       -3.24606282033932
H           -5.58429620761327       -3.16358043999087        2.68819181667915
H           -5.96886882389126       -4.53867282308952        1.61619428957140
H           -4.27071024335600       -4.07583754063602        1.91627549071112
H           -3.57746450380553       -1.92900708780952        2.47772325853087
H           -2.33088820900458        0.14319166673191        2.17012976076773
H           -2.97484452276513        2.32360915779162       -1.92007956453942
H           -1.56382923442666        3.19556608570311       -1.32157425086038
H           -1.60161326395975        0.26826003394833       -2.07120600974223
H           -1.16298091425492        1.61184483658292       -3.11162304792522
H           -0.46665278881170        2.54074599390515        0.41239870767988
H            0.87619922165278        2.04263725742690       -1.66991119532667
H            2.22541204586643       -0.38322204816333        0.50955773664883
H            2.41108887838115        1.15960827230724       -0.28999024753112
H            3.00166096191893       -0.00086844611877       -2.39709630625317
H            2.83331303016929       -1.57076854964336       -1.60567843806872
H            4.84395054586046        1.53369756413283       -1.70569660855371
H            7.10923065320513        1.71772356510819       -0.82039648147516
H            8.75058063788833        1.77511036139426        0.83157145843903
H            9.35577879345050        1.05925482345046       -0.68866304163959
H           10.13471627912249        0.64627495247446        0.86591144642187
H            6.97834431094981       -4.21646992179138        1.77754660516260
H            5.37427251361874       -3.42840734716934        1.79860687113669
H            6.03800965816159       -4.08256190846583        0.27388465880195
H            4.47756043917621       -2.36782089234250       -0.06539880023606
H           -0.13782149059342       -1.62558541420713       -1.70742956468716
H           -0.90480553899338       -0.94616594138178       -0.24164482543183
H            0.62674166226403       -1.78710281084042       -0.11065521553716
H           -5.06791354202337        2.68940809154975        0.28697022667316
H           -4.18335219151404        2.85321056318337        3.18372724840791
H           -4.82234490556415        1.37421060714408        2.42678734262825
H           -5.82958584501454        2.77795578495877        2.54429670627705
H           -2.87677453190344        4.34943838394456        1.61698362626617
H           -3.46867462258416        4.58543531557748       -0.04525603015801
H           -4.47014809751201        5.03207757148280        1.34230271472987
H           -0.39057758802567        2.21561534491219        2.67453901170073
