72
 energy: 49.373020069474 xtb: 6.6.1 (8d0f1dd)
N           -1.02273010367403        1.61474016825017        2.13718538251344
C           -1.16853907076239        2.07131931709774        0.94257377709803
C           -2.11624931380494        1.62442149754486       -0.00733844211837
C           -3.00480187683090        0.51649840007134        0.22030692617285
C           -3.87412998139264        0.03354931053151       -0.78314027901779
C           -4.71273900644965       -1.03786959707895       -0.57043458030282
O           -5.57556434988774       -1.55474534375295       -1.50306376366621
C           -5.68981438333357       -0.92446340856300       -2.74492164548305
C           -4.73353704564082       -1.68988436255768        0.68076629389567
O           -5.59518338491820       -2.75497462728388        0.78445125310133
C           -5.63003450961704       -3.45962056494553        1.99450781863964
C           -3.89626464784024       -1.22256774948506        1.68068379982775
C           -3.05705219606182       -0.14445515679059        1.45759048451087
C           -1.94771534156506        2.16801208231269       -1.36069374836773
C           -1.03660160117681        1.21829363711553       -2.31361913247979
C            0.33730012478900        1.11932483829658       -1.89036494390755
N            0.80393417744434        0.18441716262193       -1.05573915960515
C            2.17039345614743        0.22860375122554       -0.60101129436193
C            3.14520036706351       -0.48274611769639       -1.56262578299809
C            4.54995464431435       -0.40708932734475       -1.03111572329843
C            5.32403527119417        0.71793677939818       -1.23535775658349
C            6.60468752764114        0.80806209538918       -0.70572850835314
C            7.13296880907293       -0.23014697957202        0.03978151683836
O            8.37126655396883       -0.25139667759979        0.60388948081081
C            9.21181016741034        0.85835972197427        0.42120780727943
C            6.34820072151766       -1.38727097465260        0.25615482179778
O            6.94447318169118       -2.35981826953989        0.99655576153083
C            6.24659745675808       -3.55588627380750        1.23212240178446
C            5.07287052084418       -1.45482415288795       -0.27517945190788
C            0.07430565708074       -1.04306105077543       -0.83246788885654
C           -4.79456200883672        3.03248857598978        1.35043163449853
C           -5.03973152656968        2.38986256213887        2.65227620094754
C           -3.93772404142665        4.22957350224183        1.21405305789829
H           -3.90849371255997        0.52636872218521       -1.74197786958608
H           -5.99351369527737        0.12449091263867       -2.64868661828380
H           -6.46031156014710       -1.47323352296180       -3.28533637093744
H           -4.75624028942993       -0.97889512702419       -3.31092832538808
H           -5.96975573713302       -2.83373000107425        2.82907117004574
H           -6.34352831361354       -4.26843215287785        1.84139204995008
H           -4.65444064067872       -3.88604048459677        2.24866044408394
H           -3.86951921018398       -1.71962102479044        2.64262359088027
H           -2.40862425013777        0.20692925800943        2.24057892986160
H           -2.88468598151790        2.25806209717301       -1.90429276800842
H           -1.45284481689383        3.13912496859082       -1.35420383688393
H           -1.54426665946715        0.25633325770267       -2.35785749233889
H           -1.07498615372638        1.71242349003293       -3.28479294153713
H           -0.51667462732153        2.89648281470927        0.56673952476318
H            0.96671366051603        1.99645390829108       -1.97091003786872
H            2.23123667706906       -0.24516968520363        0.38102865235865
H            2.47648212850532        1.26884584045745       -0.48704712623909
H            3.09015064874571        0.00223014967251       -2.53627434592906
H            2.84626368108076       -1.52397757459172       -1.68764546729967
H            4.93660858637836        1.53816718756560       -1.81974260190467
H            7.18456899272036        1.69834455790970       -0.88848046322621
H            8.78331143752989        1.76955770835740        0.85249080485799
H            9.43592246224111        1.02817259247750       -0.63845168553589
H           10.13302134567617        0.61472505313237        0.94820678654762
H            6.92227897736713       -4.17525197452592        1.82035850286952
H            5.32623509754172       -3.38446370950777        1.80091810169532
H            6.00460882446270       -4.07365556368864        0.29776006437993
H            4.46630433613736       -2.33281652060779       -0.11621205374085
H           -0.10405703276008       -1.55519368688819       -1.78017010391423
H           -0.88240775656729       -0.84495719650570       -0.34257813638794
H            0.65793818199714       -1.69374280992437       -0.18787160932148
H           -5.41030559408915        2.72050638538532        0.52648785820785
H           -4.43210322809351        2.83460651020109        3.43429138875920
H           -4.83638408226188        1.31579519794302        2.61408913144224
H           -6.09442929825419        2.48855126045970        2.92609737367255
H           -3.03028343403618        4.12891543372903        1.81176605814176
H           -3.66552142398567        4.43319700400052        0.17658302663786
H           -4.47673142954912        5.10649661277067        1.60596978323472
H           -0.28236297500878        2.06574544400278        2.67112963262857
