72
 energy: 50.056865502252 xtb: 6.6.1 (8d0f1dd)
N           -1.07513030613803        1.68481993470068        2.15266569095231
C           -1.19487270316171        2.10828162629419        0.94321174503923
C           -2.15832860914589        1.66296950191555        0.00297599559328
C           -3.03293828695603        0.53617547879872        0.23015900884167
C           -3.91046039286327        0.05802386874389       -0.77168066812734
C           -4.72103230736977       -1.03475481426579       -0.56797368246831
O           -5.59374623915455       -1.55291285028984       -1.49400507814931
C           -5.75671319187397       -0.88901682322230       -2.71269773745659
C           -4.70650511216043       -1.71596498955129        0.66572202210902
O           -5.54943907964236       -2.79478109851999        0.74548064503834
C           -5.55103344127793       -3.52603438763445        1.93961889814317
C           -3.86156367153032       -1.26184318296527        1.66241800033614
C           -3.06056952041111       -0.15101048358805        1.45524905321551
C           -1.97486369448516        2.19014691648705       -1.35161744915628
C           -1.06379709143924        1.23098923747213       -2.26894977431495
C            0.31529295535518        1.12305734087608       -1.85275251667590
N            0.78087925313199        0.19158363835356       -0.99657837482978
C            2.15562806348668        0.21113377712763       -0.56855389642116
C            3.14008833108765       -0.49230738657269       -1.53218355226549
C            4.54577644194217       -0.41073939302872       -1.00833524233139
C            5.31862879461516        0.71570183159900       -1.20912410687681
C            6.60125819986220        0.80715556529368       -0.68623578447749
C            7.13544904377308       -0.23352347121336        0.04879051198652
O            8.38174840327779       -0.25449120355432        0.60384186004593
C            9.21717191521872        0.85825913662849        0.40912861878504
C            6.35292085163452       -1.39049390416703        0.26418490695709
O            6.95641007279814       -2.36720645712175        0.99484702928646
C            6.25853661075903       -3.56314901565572        1.22751865425999
C            5.07674513174790       -1.46120289336445       -0.26217034122611
C            0.06354677223469       -1.04785222828387       -0.80700121928249
C           -4.68825528585647        2.98351422014346        1.29229861178230
C           -4.97633315076760        2.37839115828607        2.59656816098946
C           -3.89639680449413        4.23793934488599        1.16590716805998
H           -3.97477095759867        0.57366334943777       -1.71492083367839
H           -6.07085861090233        0.15325515726220       -2.57749758928604
H           -6.53135556697072       -1.43600380102506       -3.24879727151969
H           -4.83931445755699       -0.91353874226392       -3.30420925273579
H           -5.87862379155961       -2.92406840028365        2.79629224460737
H           -6.25546993605385       -4.34135778869012        1.78289779114702
H           -4.56158350888611       -3.93499727309631        2.16002617646290
H           -3.79909220024744       -1.78003866461186        2.60792180260174
H           -2.40443493749010        0.19319622971975        2.23555803616897
H           -2.90369963621763        2.27459222427540       -1.90754846631635
H           -1.47706857338532        3.15871622953205       -1.34675340915398
H           -1.55929465154874        0.26498850674386       -2.29482525061824
H           -1.09212404533011        1.70798073887851       -3.24547904388140
H           -0.49892266032944        2.86430361796882        0.53326922420916
H            0.94638724289970        1.98479547515099       -1.95981933575294
H            2.21527427228711       -0.26403458324967        0.41322920184244
H            2.45999484506333        1.24756557667564       -0.43976750855805
H            3.08109451467610       -0.00587252154597       -2.50228288729597
H            2.84480127449367       -1.53293331693511       -1.66512428651176
H            4.92553044407693        1.53825376725519       -1.78500404714356
H            7.17631239220857        1.70084966347398       -0.86526872029016
H            8.78886732480567        1.76760459351263        0.84502177990745
H            9.41986554094943        1.02913890968785       -0.65459399211598
H           10.14521301638715        0.61696695603881        0.92723409477962
H            6.93628428548689       -4.18657901872373        1.80934119616654
H            5.33913587574105       -3.39579872488365        1.79964167002978
H            6.01380340713609       -4.07723925703480        0.29196461464674
H            4.47303739571130       -2.34087533003673       -0.10421156446564
H           -0.10961206903029       -1.55954157716522       -1.76313495066165
H           -0.89011268070370       -0.84881979587958       -0.31192371209008
H            0.64738841939440       -1.69734992038297       -0.15825857658065
H           -5.32447156679825        2.69427375686173        0.47386853457822
H           -4.38026323522275        2.84178867524070        3.37448758574351
H           -4.79483856295727        1.29788780555150        2.60242096190592
H           -6.04058047008663        2.52088684742609        2.81444372148930
H           -2.99207145284705        4.19007732016770        1.77416273962052
H           -3.62848954893919        4.48128356866588        0.13368234157374
H           -4.49298420437964        5.07308045499791        1.57371786032098
H           -0.29675798193658        2.11681850895947        2.65954052449976
