72
 energy: -3.525772868308 xtb: 6.6.1 (8d0f1dd)
N           -1.50125299212778        2.61536046995357        2.32220201620727
C           -1.51823621456712        2.14968544999927        1.15005503719649
C           -2.72220017100298        2.02997784128511        0.24370764458213
C           -3.27863595993837        0.63210908898263        0.30594948959161
C           -4.24599661861075        0.22791180204585       -0.61583888843361
C           -4.82918866941769       -1.01971427897506       -0.54066077732839
O           -5.78555243760559       -1.50713714970828       -1.38226655891114
C           -6.30306695076262       -0.64838844504318       -2.36216762932994
C           -4.44090980238142       -1.90941626468767        0.47994573808121
O           -5.07960631099810       -3.11286477300374        0.45964822697746
C           -4.79767160464078       -4.01827482136440        1.48999308909659
C           -3.48417280411700       -1.50774959891624        1.39048955630460
C           -2.91018871272179       -0.24627327330223        1.30336264866201
C           -2.19786796024466        2.29482897525433       -1.20865411740116
C           -1.24650075306915        1.20090139587965       -1.74774096171677
C            0.05408465040820        1.16074082055912       -1.02699725535394
N            0.68117950569387       -0.02624416349993       -0.64745937421274
C            2.03844740872294       -0.00807943433077       -0.22069537941994
C            2.97649991987383       -0.54273035895381       -1.31786599297027
C            4.39450331310705       -0.43692772428438       -0.86686807685457
C            5.11526124988479        0.72548263804020       -1.06625771974087
C            6.42106847779541        0.83571761673095       -0.61071587641221
C            7.02232341766236       -0.21462949217829        0.06022001618772
O            8.29764396530503       -0.21958776629492        0.54097266302290
C            9.09350996507401        0.91722129618988        0.33233262555044
C            6.28942771223007       -1.40109135707705        0.28269795602192
O            6.96221719838405       -2.38460883554748        0.94655781222283
C            6.31329432375086       -3.60943350730495        1.16741871230854
C            4.98918864785813       -1.49214568140618       -0.17622746074908
C           -0.02118704577331       -1.27495204194659       -0.64312242365158
C           -3.93396053550914        3.00971349508278        0.66380927551348
C           -4.55574690797819        2.70325767294933        2.02962622030614
C           -3.47183842230110        4.47471346974645        0.63386640360826
H           -4.55634214068465        0.90719622872556       -1.39095030335794
H           -6.73436696827967        0.25616404359855       -1.91984977010515
H           -7.08067599871919       -1.21864403232381       -2.86700370539884
H           -5.53830614215125       -0.35961450503316       -3.08819699695739
H           -5.03125992398824       -3.59537610091091        2.47236311941823
H           -5.43615120854841       -4.87870505061999        1.30018045274813
H           -3.74822663209967       -4.32542303157789        1.47312893219196
H           -3.17424043123733       -2.16143773545351        2.18799032080682
H           -2.18226267623174        0.05332201548562        2.04003818923329
H           -3.04323665873226        2.39649658216221       -1.89658670577089
H           -1.63758049166659        3.23162640756213       -1.22393604948302
H           -1.75231598075299        0.23807469673466       -1.71055305409425
H           -1.05347998369249        1.42313046332643       -2.80638002269973
H           -0.61245815381059        1.82583007233596        0.61102957554090
H            0.70314594848403        2.01176701723982       -1.09550945885367
H            2.16399913777817       -0.60952799050283        0.68832400355499
H            2.32049132720180        1.01810537634494        0.02137409799889
H            2.81433645084843        0.05190770136551       -2.21855843169760
H            2.71298080989873       -1.57877056567833       -1.53367297598738
H            4.66801197454748        1.55468224716422       -1.59354633525380
H            6.96362817294118        1.74956788077190       -0.79402223450144
H            8.67173445602529        1.80278702942691        0.81973309269187
H            9.23330031189660        1.12271294321594       -0.73451089818517
H           10.05771914028755        0.68414843321298        0.78298927960547
H            7.03978413267847       -4.23730491787069        1.68159411398209
H            5.42524186388688       -3.49089689799235        1.79855784435852
H            6.02495170682940       -4.08956966284745        0.22556841125611
H            4.41685122282392       -2.39207600234952       -0.01636405866600
H           -0.19773573058539       -1.65018434145853       -1.66019035733853
H           -0.98969426434953       -1.17996129744056       -0.13881910877366
H            0.57349739766655       -2.00347342468434       -0.09499713986090
H           -4.73304159828882        2.90321341498224       -0.08473936390909
H           -3.84374829696083        2.89126724012910        2.82641444783170
H           -4.87610091914418        1.66837705351852        2.07376013372205
H           -5.43416907266212        3.32845302101424        2.20904806784304
H           -2.65593887238273        4.60761208703604        1.33809195557780
H           -3.13170139631522        4.76211631481440       -0.35912551733138
H           -4.27922179844455        5.15054494912806        0.92219914123918
H           -0.56686290125972        2.64468061917523        2.73072433439223
