72
 energy: 19.342295994077 xtb: 6.6.1 (8d0f1dd)
N           -1.40226875570186        2.26201758706979        2.31194092845321
C           -1.43741524799535        2.18236595231384        1.05417380846706
C           -2.63336996791733        1.95725081060881        0.19245610641555
C           -3.20857010711363        0.58520475566411        0.27734779091327
C           -4.13039792869004        0.17937022695724       -0.68946838258259
C           -4.78820313044716       -1.02173661937248       -0.56094573852481
O           -5.71682049707080       -1.52675101696922       -1.42261406811098
C           -6.11481232733923       -0.72440076989512       -2.49730271607064
C           -4.53226327476097       -1.84269241838951        0.55087467646741
O           -5.25351935525747       -3.00116377919086        0.55905512791586
C           -5.06713914267323       -3.85005401773723        1.65245540204061
C           -3.61577841129188       -1.43480627321059        1.49881321511904
C           -2.96357401030554       -0.21939875552330        1.36320115424028
C           -2.17091887527235        2.27527569593354       -1.26765383052992
C           -1.21015854119376        1.24630567722997       -1.92664648638172
C            0.13769975781940        1.23355036690827       -1.30159973302927
N            0.76351741934254        0.02602639947235       -0.86611314016471
C            2.09999388702908        0.05691351806909       -0.35533688917194
C            3.06133557637757       -0.54327485200473       -1.39100824598561
C            4.46940380042090       -0.44378309033374       -0.91611694525086
C            5.19805577896635        0.71387862903345       -1.10804388622446
C            6.49334122557214        0.82173602708996       -0.62297132276873
C            7.07589002618951       -0.22708033207678        0.06793563088739
O            8.34520224812689       -0.23705182866572        0.56711843895870
C            9.14554422935227        0.89482856111544        0.35588178502997
C            6.33237854674980       -1.40488692064808        0.29034988246230
O            6.98374744863736       -2.38946592540124        0.97877139367122
C            6.30728151049130       -3.59958692564189        1.19854859307720
C            5.04115530857934       -1.49110629429193       -0.19696726541770
C            0.02663795909935       -1.19780407278925       -0.70233074630323
C           -4.08290280985012        2.90045953259391        0.84175432859991
C           -4.67321008233900        2.55488932231845        2.20824931296226
C           -3.62536620554056        4.36949914554669        0.80680240356554
H           -4.34896843138070        0.81703261687241       -1.52916443004496
H           -6.50281236400359        0.24286098939527       -2.15644531861211
H           -6.89216128704234       -1.28627931047861       -3.01121978741345
H           -5.28645409921095       -0.54693189147587       -3.18395951613546
H           -5.33083497335702       -3.35851450798728        2.59464587904363
H           -5.72615890426910       -4.69668447910278        1.47608008397000
H           -4.02950866006420       -4.18153434583685        1.71049728070729
H           -3.39111475874191       -2.04240833783240        2.35787546980321
H           -2.26255622047284        0.10802854690050        2.11149758319145
H           -3.02588789644895        2.36112389153929       -1.92672840858274
H           -1.62442896345541        3.21846600577132       -1.28434982955247
H           -1.65366952992382        0.25215891405087       -1.89868173484660
H           -1.14436364771841        1.52120607692444       -2.99002416611969
H           -0.52436278336697        2.20935217052948        0.46422182614561
H            0.81539501810280        2.04523293271337       -1.41403246236496
H            2.22027022249466       -0.48601686203945        0.59461096330438
H            2.36518585716498        1.09369244946740       -0.15384623638967
H            2.91879334467246        0.01759229019541       -2.31582318884757
H            2.78336690451465       -1.58228392020488       -1.56949357888791
H            4.76524665827207        1.53955562217600       -1.65208590965452
H            7.04415310643584        1.73176615438687       -0.80164253281134
H            8.71539604892923        1.78729115822047        0.82418596820642
H            9.29955722222233        1.08618057063276       -0.71190133148666
H           10.10455150504075        0.66655359809917        0.82401037419398
H            7.00878521517612       -4.23537254628116        1.73822859503077
H            5.40179540039504       -3.45527990974363        1.79965556840253
H            6.03809604405026       -4.08537645843120        0.25346806487483
H            4.45415177010068       -2.37969591483529       -0.03752584653195
H           -0.16023872535442       -1.66920293354602       -1.67307622793294
H           -0.93719437566303       -1.04872027348625       -0.19352690638492
H            0.60487811487799       -1.88375948534551       -0.08630703563534
H           -4.90440738061209        2.78306470785133        0.11568694408018
H           -4.02143524626237        2.86679538264695        3.01898942622900
H           -4.86155574284306        1.49486424136130        2.26806893482582
H           -5.64709938382240        3.04518128428055        2.37282935738303
H           -2.77552308309994        4.46052885129951        1.47706772012498
H           -3.31899889648637        4.65793435295508       -0.19940340331472
H           -4.39375871252927        5.07526725943385        1.14633645073579
H           -0.47265376930404        2.39253215826890        2.70298600753957
