25
 energy: -42.152837648481 gnorm: 0.003383677224 xtb: 6.6.1 (8d0f1dd)
C            2.42556616588449        1.42322194564544        0.39317194000905
N            1.75876997137152        0.16526481314347        0.18520689511066
C            2.37005188694649       -1.02358792203203       -0.04862836681258
N            1.45074536125120       -2.02260910236925       -0.15041924359392
C            0.22914573842033       -1.45316201714775        0.02567257261774
C            0.42065998937845       -0.09124415392541        0.23472007647586
C           -0.15191854767694        2.96908808588668       -2.27629522302933
O            0.97159386694618        3.14575045945976       -2.30523815590711
N           -0.79149736928333        0.49393749892785        0.43168553967866
C           -1.14511700113838        1.88084266572782        0.59131611256731
C           -1.76103127341502       -0.51727913451636        0.32913354192118
O           -2.94499966219961       -0.37684529242600        0.44765082240236
N           -1.09625149107382       -1.73114132739040        0.07974406031139
C           -1.78789223590738       -2.97637364058352       -0.12835979895992
H            2.51081874392770        1.64068831200996        1.46024013038176
H            3.42489578681667        1.38033995012299       -0.03542334746922
H            1.86794975600945        2.22527008325615       -0.08732401022576
H            3.42676391332024       -1.15411334483355       -0.14596024790047
H           -0.51090338049673        2.35727638875162        1.34123390840022
H           -1.05821542547219        2.41419765344913       -0.36663106594636
H           -2.18510851622785        1.91236895858514        0.91477528089301
H           -1.49883227288943       -3.71112718316305        0.62341562999969
H           -1.57947741119598       -3.36948904989663       -1.12413970996077
H           -2.85376978861391       -2.76978776312766       -0.03788356494422
H            1.66848470941054       -2.99324834195358       -0.32049215812097
