25
 energy: 12.417304608084 xtb: 6.6.1 (8d0f1dd)
C            3.21626054431785        1.31273013663946        0.11668520530078
N            2.38237735601987        0.12952788194169       -0.00004159596426
C            2.72898765250505       -1.20912501974311        0.06085021264965
N            1.57671378564461       -1.96169980466648        0.04741138942669
C            0.46700212712601       -1.18228593783969       -0.02501438085712
C            0.97089549170420        0.14620799040509       -0.04963561338467
C            0.16898039144320        1.29948574602651       -0.07294550412280
O            0.49804794853734        2.49099743830709       -0.09861281638156
N           -1.20330559455402        0.94751621809105       -0.06060272307349
C           -2.14262766679663        2.05185613286984       -0.05347870250187
C           -1.74285984637504       -0.28723746546269       -0.05936278364330
O           -2.96024907196703       -0.37716547746609       -0.06080395034103
N           -0.92394407579459       -1.46092064056330       -0.05286241166116
C           -1.85338738440365       -2.64102088591298       -0.08049114795049
H            3.85290024240792        1.30950841125182        1.01088649928914
H            3.88388748185268        1.45564281265242       -0.74584575108417
H            2.55754455412766        2.18532595009773        0.18567277770983
H            3.72180392644831       -1.60794234764354        0.09449552495299
H           -1.54560559965555        2.96201777867886       -0.03845319678963
H           -2.76331043670575        2.02143426081122       -0.94640041312149
H           -2.77204684903606        2.00506326522955        0.83234627398060
H           -1.82855109565554       -3.29583299339589        0.79041083175249
H           -1.83961082672977       -3.23614873521396       -0.99364657214650
H           -2.82756530749019       -2.15144945168242       -0.05883108776346
H            1.61423291172808       -2.96603495048256        0.09243093162404
