25
 energy: 51.625431875051 xtb: 6.6.1 (8d0f1dd)
C            3.23470325997471        1.55162510290438        0.16409943575707
N            2.59005242558728        0.26529677665025        0.01409359824762
C            3.02992969088875       -0.98112366627401        0.14706513113818
N            1.98429466916832       -1.85466210856447        0.10840103223214
C            0.80141004538825       -1.14228683409134       -0.03835313718039
C            1.23705559352329        0.18921053567228       -0.12429342844732
C            0.33584883553618        1.29446553126905       -0.19270626852716
O            0.65763636272573        2.47429407790739       -0.27594723130439
N           -0.94889087933946        0.86798474273028       -0.11802747910451
C           -1.97419225617837        1.89236242523584       -0.05208067181979
C           -1.37143916250349       -0.48106745024225       -0.04593230752359
O           -2.57574071604948       -0.55871979202322        0.03922774150817
N           -0.46850869068448       -1.51831354633460       -0.03942043583657
C           -3.37384299031332       -3.06844920297335       -0.14469054341579
H            4.13751924593906        1.46899434799513        0.75875542309211
H            3.47368767690666        1.98922887242942       -0.80820517061397
H            2.52207177069551        2.22203161751746        0.65907571473128
H            4.05473519925388       -1.27695004676219        0.21769336855561
H           -1.43244151274058        2.83530065684095       -0.06925508460884
H           -2.64512358716577        1.80245582851531       -0.90198616819625
H           -2.54674271964449        1.79098987038919        0.86881952085994
H           -3.19366332285993       -3.69664892751488        0.68755086762684
H           -3.26959366739165       -3.41632102021002       -1.13831795098836
H           -3.53852917712663       -2.03879797755827        0.01814867101051
H            2.08462780140123       -2.85643222699311        0.19972211353808
