25
 energy: -42.175146039474 gnorm: 0.001377960523 xtb: 6.6.1 (8d0f1dd)
C            3.68490284548565        0.81083828699958        0.44216129590148
N            2.69662242350862       -0.20159449859831        0.21025367871574
C            2.81068439688724       -1.50386943578697        0.44446853708590
N            1.66987611648738       -2.13904086862061        0.12165261995715
C            0.72136157792042       -1.22520350301749       -0.35516635998066
C            1.41213382944381        0.05647376981548       -0.29228993189283
C            0.92266001065750        1.26021447304633       -0.59441124687683
O            0.45962977885900        2.28762667639121       -0.88311135422969
N           -2.88048706788991        1.49553128739598        0.32768971209709
C           -3.97578365192234        2.31810093163476        0.02941200385008
C           -1.91669771311170        1.19483539778487        0.94380884961413
O           -0.95273463433271        0.74566871655947        1.41360217704764
N           -0.46287165859803       -1.41776528452849       -0.76354138527312
C           -1.15790708673712       -2.65175395343303       -0.82095832398121
H            3.37317046805834        1.46655153773671        1.25858244082660
H            4.63318904824707        0.34509852544076        0.70214429895709
H            3.81629683784893        1.41760755708238       -0.45533261048644
H            3.68990590275948       -1.98184490456965        0.83083139061245
H           -3.66098938520021        3.35775788423165       -0.08778516431081
H           -4.41037852399512        1.96747893906099       -0.90781814161717
H           -4.72912771363244        2.25374637836306        0.81821736918340
H           -0.80912212616829       -3.40152556718498       -0.10272307229675
H           -1.08208072106430       -3.06311115189478       -1.83174475170788
H           -2.21148314687116       -2.44217878422046       -0.63079912657528
H            1.51966170749981       -3.13140386807515        0.21402871328560
