72
 energy: 65.376949495621 xtb: 6.6.1 (8d0f1dd)
N           -1.59287873683168        2.89906573407678        2.30816388081396
C           -1.59656675100965        2.12698843593300        1.31462604263579
C           -2.72498351621410        1.99490719041642        0.33486439334822
C           -3.29384488210469        0.58725484716935        0.40619987242890
C           -4.23338645506954        0.15920301122718       -0.53226624411289
C           -4.78407316655708       -1.10726667477128       -0.48515745710605
O           -5.71352967319420       -1.59487802791916       -1.35899992268380
C           -6.22527793058554       -0.72562742432919       -2.33827071158188
C           -4.38423447455687       -2.00545240396863        0.52657828770263
O           -4.97520694483552       -3.23530759162266        0.49155250871358
C           -4.65719340662769       -4.14696360260435        1.51106246475734
C           -3.45046578986914       -1.58215889400509        1.45135271699579
C           -2.91985656113517       -0.29929832306341        1.39306086936496
C           -2.11770983205793        2.23144583541699       -1.07488306955945
C           -1.17444997817541        1.12129036896259       -1.60638391898978
C            0.15934698295956        1.13428842491836       -0.93931029199533
N            0.81053922697924       -0.02577680700510       -0.51364475867405
C            2.20983942766179        0.07456103427050       -0.25211271204018
C            3.07557483860321       -0.18928907378686       -1.51695916160406
C            4.49526210244122       -0.06879760481752       -1.13050441162086
C            5.38669264448970        0.95310701840705       -1.24960013746727
C            6.67145189496681        0.84980606849576       -0.70418973931842
C            7.11860344287083       -0.19200545558219        0.11255869075551
O            8.42264674038996       -0.14260362668212        0.58696304791194
C            9.30406188106307        0.91715005489016        0.22068055858201
C            6.06232604917354       -1.23313311927011        0.35047667522657
O            5.47756919552430       -2.34697309422853        1.31821008434361
C            4.85114597522861       -3.54340293753243        1.10876498512659
C            4.89781421857157       -1.08985452257169       -0.34305987630678
C            0.23861552545938       -1.34525084507468       -0.65121528930153
C           -3.87758425809136        2.99810082259777        0.58383618684566
C           -4.54167977013098        2.73878518584113        1.93493394139694
C           -3.40630565470831        4.45037466437136        0.51171687746543
H           -4.53631459568751        0.83807512852846       -1.31281282613634
H           -6.69228934514842        0.16069296297378       -1.89387277716284
H           -6.97807259950992       -1.29873932639741       -2.87756857292936
H           -5.45173463838299       -0.40305780849436       -3.04246533545648
H           -4.91361995018021       -3.75388732803671        2.50185272036686
H           -5.25899054595356       -5.02835152269466        1.30018011879970
H           -3.59583248683678       -4.42086275911065        1.50035701590747
H           -3.12138071943367       -2.24545045804390        2.23628133599660
H           -2.20541496007926        0.00249127458361        2.14110930184895
H           -2.94773912800400        2.35679212430096       -1.76888231244918
H           -1.56542757003023        3.17339981831661       -1.07066069209429
H           -1.64899983927241        0.15000558154517       -1.49650061219099
H           -1.10028512403538        1.29865445509545       -2.69802210325961
H           -0.73552414413022        1.52579781054127        0.98034617403190
H            0.81853038733882        1.95941268137602       -1.18319969235095
H            2.45211580306391       -0.63585582178923        0.55930284189796
H            2.43277739205914        1.08958575424478        0.10734167025942
H            2.82845155211750        0.51623388266608       -2.30345897773717
H            2.87861803774280       -1.21626203211666       -1.84660277134688
H            5.05901453383736        1.81325322972369       -1.80065490494017
H            7.35182235553618        1.67105184578053       -0.88806706182607
H            8.94981740445111        1.87334337835163        0.61341018711461
H            9.46301860283720        0.98712888346307       -0.85819358062648
H           10.27148499805155        0.69895998404489        0.68126303886798
H            5.38118501394483       -4.25883723477873        1.79295488358294
H            3.76600148312348       -3.34494183525433        1.39360404433980
H            4.88767950534435       -3.99036550284278        0.11227211016145
H            4.15161001624705       -1.83565109710253       -0.17102006404983
H            0.07517421288524       -1.64762254923249       -1.69581945945143
H           -0.72193999585436       -1.39498955222036       -0.13475157239264
H            0.91707906999628       -2.07166663814360       -0.19328451920924
H           -4.62504810730360        2.84034388258789       -0.20390468362672
H           -3.80768190382614        2.89748261753772        2.71752956171340
H           -4.91478392918697        1.71833217279317        1.99987371303098
H           -5.37362968577185        3.42599787088865        2.07959689595452
H           -2.61828800538667        4.61553005442469        1.24191746876648
H           -3.03779545081078        4.70953690562052       -0.47728593918035
H           -4.23427736527381        5.11567607053317        0.73885427671977
H           -0.72322965058862        2.85172398829081        2.83408094468886
