72
 energy: 49.117055559036 xtb: 6.6.1 (8d0f1dd)
N           -1.58152440384110        2.89368063416104        2.29595412576919
C           -1.59299843240103        2.13092538003887        1.29614239497680
C           -2.72987338134711        2.00301673091899        0.32649909151080
C           -3.29857505078151        0.59504969408345        0.39905593752896
C           -4.24243611629656        0.16855474308691       -0.53571781460137
C           -4.79212466206419       -1.09830109516900       -0.48909602404467
O           -5.72527402520798       -1.58446374574480       -1.35990555410439
C           -6.24219387434761       -0.71296393240429       -2.33427666655989
C           -4.38717209723059       -1.99856198415398        0.51871841895508
O           -4.97782608310698       -3.22862659864973        0.48311800709557
C           -4.65687423779674       -4.14197323597156        1.50036419481676
C           -3.44906301940625       -1.57715586440527        1.43998557383717
C           -2.91883407736101       -0.29390743559520        1.38171396391546
C           -2.12722060638945        2.24030606127683       -1.08465733926620
C           -1.18348944645245        1.13162343163970       -1.61767888387820
C            0.14597971283440        1.14020365471752       -0.94085616121693
N            0.79110340816199       -0.02869847004142       -0.51979371731572
C            2.18974559859754        0.05833571187181       -0.24537466089706
C            3.06219118854766       -0.22726777468041       -1.49965450291951
C            4.48015510718310       -0.10613458922504       -1.10814631893292
C            5.35729883861599        0.92911522598177       -1.22944306039646
C            6.64480138419902        0.84557571239144       -0.68708463695703
C            7.10048600135038       -0.20305617196172        0.11867768018150
O            8.40511695466887       -0.16274736617297        0.59183422978106
C            9.28249244110625        0.90042609579998        0.23215668865493
C            6.05554284470905       -1.24972577145754        0.36193142857951
O            5.65506002593922       -2.35825123241159        1.29544242439324
C            4.99206998696685       -3.54731939853377        1.11688304271477
C            4.88855512065834       -1.12929642769559       -0.32641141870034
C            0.20837842319147       -1.34343548072625       -0.64810211075950
C           -3.88120664836650        3.00676132138133        0.58282113652236
C           -4.54206909479193        2.74424173670038        1.93510255286962
C           -3.40768753594674        4.45876380342837        0.51583761741576
H           -4.54879898937275        0.84895913143706       -1.31353048041040
H           -6.70741029091954        0.17166428951130       -1.88474666842228
H           -6.99736539005206       -1.28505080668666       -2.87129763910286
H           -5.47227260134807       -0.38814857893805       -3.04142411089523
H           -4.90904766390892       -3.74987825646096        2.49268084533704
H           -5.26070972899147       -5.02239122974812        1.29065556702303
H           -3.59574295339061       -4.41678277047119        1.48525527394515
H           -3.11639397633882       -2.24224228361181        2.22219446598170
H           -2.20066713544475        0.00601121165674        2.12721037339930
H           -2.95899409675416        2.36572965210085       -1.77650054999669
H           -1.57430502754912        3.18184404868733       -1.08206369526681
H           -1.66013517852798        0.16026840242991       -1.51465083725493
H           -1.10680039320617        1.31784404719978       -2.70846988309727
H           -0.73146215540221        1.53747722569684        0.94521503156997
H            0.80219211733692        1.96404294500826       -1.17131508924818
H            2.42023008998982       -0.64554503149906        0.57591420729613
H            2.42194725891502        1.07409096237825        0.10545141069492
H            2.82217373510137        0.47048085041903       -2.29574704126505
H            2.86389052586655       -1.25678024638085       -1.81835196948490
H            5.01782700082144        1.78730587470687       -1.77768440768257
H            7.31202242723484        1.67915654966423       -0.87024752317492
H            8.92529351849716        1.85522934485902        0.63162507702352
H            9.43257790035664        0.98440097029424       -0.84647676273961
H           10.25211635856845        0.67875499196906        0.68716269373983
H            5.54238816777811       -4.26236221263856        1.78480299416911
H            3.92593001581437       -3.34328313788097        1.43700858756195
H            5.00115507373882       -3.99160271482897        0.11871442793894
H            4.16338101617780       -1.89583711346921       -0.15312194376437
H            0.04464495068932       -1.65122864788869       -1.69092284088060
H           -0.75328623921984       -1.38100069460514       -0.13278532894589
H            0.87926668123997       -2.07371425638776       -0.18426823776752
H           -4.63083481541641        2.85258672773491       -0.20370223627850
H           -3.80235605906679        2.89771193477408        2.71407586918220
H           -4.91777074463233        1.72434771946157        1.99749491901858
H           -5.37227330533125        3.43192414321298        2.08665395922624
H           -2.61821279763380        4.62131042180872        1.24631733117168
H           -3.03899013776425        4.72052036154184       -0.47251705928053
H           -4.23526268003020        5.12386401917275        0.74526183617075
H           -0.71117609646749        2.84533261200769        2.81967540837494
