72
 energy: 109.010092569214 xtb: 6.6.1 (8d0f1dd)
N           -1.59142952456882        2.85657041641482        2.35520698835723
C           -1.57451037850211        2.07342827116351        1.37426165385680
C           -2.68162801697483        1.94157276990502        0.36438718478828
C           -3.25758945844593        0.53640210093976        0.43914838638720
C           -4.17540225340786        0.10262725262315       -0.51903007893395
C           -4.73360718279308       -1.16024326099455       -0.46599052583797
O           -5.64170329263614       -1.65354456401599       -1.35201767963939
C           -6.12777409621915       -0.80387265863899       -2.36138491056649
C           -4.36228282142550       -2.04655732632796        0.56938540320970
O           -4.95495631241588       -3.27007009078938        0.53804010293164
C           -4.66474840509539       -4.17778126076264        1.57066954739606
C           -3.45248080562167       -1.61412553639633        1.51377538381410
C           -2.91449114423524       -0.33492441456232        1.45174249473832
C           -2.05999325847109        2.17460935628012       -1.03715493974922
C           -1.13210015795327        1.04978717376794       -1.54033263897359
C            0.22180507501967        1.07962566877381       -0.93851324543739
N            0.91611722419478        0.01345228339560       -0.50922051947516
C            2.31906232421739        0.18690979934508       -0.26436120720392
C            3.17933209654274        0.02741859165518       -1.53945421025305
C            4.61579252512239        0.11571487919896       -1.12695509258810
C            5.54326796398678        1.09403378623800       -1.33565083956724
C            6.83146159433146        1.03273410658788       -0.80733554867143
C            7.30988731474940        0.02216853561772        0.01207767658417
O            8.57492418876910        0.02145583266500        0.51695863146109
C            9.45174660504843        1.06545062554305        0.15683772338089
C            6.34504850352380       -0.95113499667993        0.22777507302286
O            4.12608131051857       -2.36649001739661        1.13032710518543
C            3.88601864234346       -3.63375982623897        1.02413784711982
C            5.14473991911745       -0.88608893973867       -0.33035730299431
C            0.41345562897690       -1.33669875318071       -0.67055626067042
C           -3.83374740096735        2.95225988530371        0.59417403540579
C           -4.51382094470711        2.71101274252986        1.93953884282902
C           -3.37666201611556        4.40650748953590        0.49618587895338
H           -4.46253137602155        0.77340408376617       -1.31190821478542
H           -6.60708235455005        0.09054533592920       -1.94831802843513
H           -6.86767394509225       -1.38884979096203       -2.90514426670992
H           -5.33624676545359       -0.49778228464023       -3.05268211685578
H           -4.94798497014261       -3.77921398167511        2.55061691658762
H           -5.26048131459888       -5.06153195224522        1.35287435223025
H           -3.60466851298455       -4.45264879938693        1.58610965725288
H           -3.15217079563699       -2.26409625781493        2.31890830144485
H           -2.22662573794794       -0.02441703878643        2.22027738505269
H           -2.87546209832568        2.29251027888906       -1.75140013776610
H           -1.50478812602072        3.11393131548411       -1.02389690126389
H           -1.60839090203965        0.08563033115854       -1.38929179581217
H           -1.03296856576597        1.19956146771623       -2.62814938315647
H           -0.73070307545317        1.42280954328929        1.16226138432437
H            0.77050535031202        2.00871256510349       -0.99569816839159
H            2.61196303473737       -0.55049598591112        0.48870591227507
H            2.49498751656334        1.18868251607246        0.14173217981354
H            2.91782832867521        0.77873769512975       -2.28787076866625
H            2.98944377270162       -0.97130547084398       -1.94747635186067
H            5.27861627291495        1.93836162964143       -1.93757514287529
H            7.53297280103472        1.80963914848804       -1.03394015684327
H            9.09083055144380        2.02469093630700        0.52751576665765
H            9.61000712019804        1.11980315762568       -0.92512319137472
H           10.40667232510405        0.84220093643377        0.63159201842796
H            4.43399369143158       -4.15762658309434        1.84836358938405
H            2.73865624133324       -3.61078781583775        1.08480075861858
H            4.21435676500859       -4.12533412038145        0.09468035255466
H            4.38335595528377       -1.67032361765775       -0.06475830146554
H            0.24613386879105       -1.60322489244799       -1.72151116558114
H           -0.53148743278021       -1.46359130589879       -0.13948609000996
H            1.13939860065583       -2.03205586711624       -0.25120790883308
H           -4.57465413703324        2.77789763857446       -0.19619816832765
H           -3.81097892128248        2.88858660490649        2.74581628528700
H           -4.88277690604438        1.69033307593679        2.01300573261477
H           -5.35274459754782        3.39478906001712        2.04834404587286
H           -2.59424505681026        4.59996226351546        1.22218536480818
H           -3.01426704543880        4.65101508391728       -0.49874048713586
H           -4.21426660826205        5.06389571521061        0.71183064177734
H           -0.74512440382163        2.84188409290810        2.92032512269681
