72
 energy: 78.944026873361 xtb: 6.6.1 (8d0f1dd)
N           -1.51512470999676        2.84643690111324        2.30692013659718
C           -1.50819946704599        2.02080337774303        1.36452377317744
C           -2.63788457512844        1.89574565464753        0.37388171903635
C           -3.22078215943409        0.49171706465412        0.45967837303567
C           -4.13058382314261        0.05237458913610       -0.50552181025076
C           -4.69361616690915       -1.20788690473758       -0.44638372296860
O           -5.58478466351184       -1.71371442641356       -1.34251050321964
C           -6.05614901024168       -0.88200317464185       -2.37184139505004
C           -4.33971558610104       -2.08319223497169        0.60550529833871
O           -4.93581770308332       -3.30493916648796        0.57366269183231
C           -4.67239691810846       -4.20900585308897        1.61672757254410
C           -3.44569369422951       -1.64345192778672        1.56313853122779
C           -2.89744056974390       -0.36847730913473        1.49260584338971
C           -2.01736734256198        2.11790545017987       -1.02902437786783
C           -1.09786279950668        0.98016576694254       -1.50051175394752
C            0.25754406577662        1.06433800314159       -0.90849795385788
N            1.00662000038437        0.03384679465374       -0.54532227417118
C            2.39478374240086        0.23055581719031       -0.20872201097666
C            3.30208260306352        0.00394647866716       -1.43077098691265
C            4.73586993083400        0.09747496411686       -1.00651088228191
C            5.59552511746848        1.13852265030242       -1.33399319712356
C            6.89947861145827        1.16060277410755       -0.85396241186812
C            7.41806208620273        0.16376521927039       -0.02690633235083
O            8.68666107446614        0.14953768063419        0.46706789474729
C            9.55679728329586        1.19517802050004        0.11299777337782
C            6.51627695497901       -0.83534221399169        0.25935815212164
O            3.25049121321676       -2.52789877166507        0.72276416328499
C            3.30063147408565       -3.84476375440027        1.00237033842237
C            5.26429311995325       -0.91337882393287       -0.18558952659309
C            0.55400140674851       -1.32582040142243       -0.68571282997037
C           -3.79083137189871        2.91424017199455        0.60038919202169
C           -4.48004484002567        2.68627976523902        1.94425525354003
C           -3.34243157854378        4.37033829712216        0.49118183925741
H           -4.40538528217617        0.71429388080220       -1.31068898273156
H           -6.54507222920522        0.01582695896489       -1.97899504711406
H           -6.78763002626815       -1.47865801967730       -2.91459079958581
H           -5.25303662615311       -0.58755846240579       -3.05674680985104
H           -4.97821182327220       -3.80431072168196        2.58695465533239
H           -5.26603351538814       -5.09406272498607        1.39188445866803
H           -3.61361509909954       -4.48533209387180        1.65527351307546
H           -3.16811355955696       -2.28249510170663        2.38560797419038
H           -2.22479884711021       -0.05505206612922        2.27612308046462
H           -2.82676666141360        2.22878878624734       -1.75110561914832
H           -1.45324826444154        3.05203284105079       -1.02161754587090
H           -1.57207227139709        0.01786317069477       -1.30800400538631
H           -0.99324271308947        1.08366851883186       -2.59238858892915
H           -0.66229617924954        1.35924035918253        1.11616088051643
H            0.71463951860130        2.04160574848364       -0.84717542407687
H            2.68015753047593       -0.50300936236512        0.55258833778376
H            2.54164051336012        1.24183071521079        0.18071343810787
H            3.06649646832017        0.73089418615629       -2.20898787096179
H            3.12109097510140       -1.00454508920563       -1.80775484260283
H            5.27708527694984        1.95557988499541       -1.96740779121500
H            7.53953612820991        1.98232447860130       -1.13300135601778
H            9.19677024620839        2.16081951082409        0.48359660876259
H            9.70299291214925        1.25575321415237       -0.97179392472157
H           10.50914554801377        0.96287487155067        0.58735525982112
H            3.75396526995608       -4.18858432237115        1.95603043602107
H            2.21565685593818       -4.15645952977763        1.08391917138329
H            3.74855639849965       -4.42011892797799        0.17189318696607
H            4.56410765358296       -1.75298228801590        0.12113496189525
H            0.37779697349802       -1.56207724821433       -1.73693699138173
H           -0.36812670628746       -1.50110218714863       -0.12887338137141
H            1.32811378190490       -1.98782036749048       -0.29908805751939
H           -4.52842076760807        2.72959899979619       -0.19032290020960
H           -3.78076239603034        2.87195174037671        2.75272206614976
H           -4.85301709972295        1.66793907261730        2.02352658633798
H           -5.32066427145188        3.36864984464979        2.04275354096132
H           -2.56240279659967        4.57336130877681        1.21680609718776
H           -2.97892201474932        4.60795896254433       -0.50544984860821
H           -4.18727830413836        5.02101038276382        0.70085487021293
H           -0.69466809342626        2.84691127486769        2.90917841430148
