72
 energy: 76.603495188753 xtb: 6.6.1 (8d0f1dd)
N           -1.51193695803094        2.83421648605252        2.31337228038739
C           -1.50633581885979        2.02606475584089        1.35694529167433
C           -2.63505911487723        1.89421432629468        0.36996304222750
C           -3.21738434413454        0.48932995883822        0.45855414040456
C           -4.12857569904285        0.05150045574836       -0.50625802256800
C           -4.69251776604738       -1.20823559947012       -0.44646264826899
O           -5.59232156989262       -1.70849577885166       -1.33729771654438
C           -6.06534822309764       -0.87870105164130       -2.36697870971089
C           -4.33741651847734       -2.08422679378054        0.60563084503725
O           -4.93462798678356       -3.30442652785439        0.57476690448948
C           -4.67341052613126       -4.21074699601585        1.61763265486772
C           -3.44199318664637       -1.64547928060941        1.56277588220969
C           -2.89279305285801       -0.37073487999640        1.49049654835867
C           -2.01641660062563        2.11409831627603       -1.03506721687353
C           -1.09254605587981        0.97935785702258       -1.50079300392908
C            0.25945893100873        1.06260144140341       -0.89450042666459
N            1.01460096450878        0.03097327626597       -0.56420722935300
C            2.39625213253089        0.21504970432795       -0.19600162086775
C            3.32022484659803       -0.02307575508912       -1.40291907853564
C            4.75090661674843        0.07942593214317       -0.97033744915926
C            5.59326137003830        1.12598676629762       -1.31674812963830
C            6.90474106537057        1.18166928342209       -0.86236477625334
C            7.43316683274560        0.19001200559117       -0.03336973116187
O            8.70423952551928        0.17623388014517        0.45479461047349
C            9.57354203864242        1.22208158375113        0.10235429638889
C            6.54974970462431       -0.81998650032928        0.27445300565980
O            3.10193813223869       -2.60761894563880        0.61444845696147
C            3.22734524110664       -3.90437075767312        0.98134936445800
C            5.28272960089956       -0.92081277422922       -0.13975131613405
C            0.56905178238659       -1.32918535610566       -0.69116128767320
C           -3.78602301396023        2.91537608731102        0.59879368271070
C           -4.47362418269448        2.68844416600542        1.94358156793464
C           -3.33594888655364        4.37172982409499        0.49208402471486
H           -4.40626801562837        0.71362327564907       -1.31008456604858
H           -6.55406679685200        0.01874656917364       -1.97254170518125
H           -6.79748930768626       -1.47686944109123       -2.90740258631193
H           -5.26420664034136       -0.58549526687985       -3.05471274507115
H           -4.98083161332703       -3.80914892252759        2.58892571973468
H           -5.26967909027761       -5.09238481082294        1.38857393833035
H           -3.61535911627491       -4.49021594278432        1.65880398872412
H           -3.16286716871334       -2.28450231480707        2.38476971611904
H           -2.21710450140218       -0.05554806725490        2.27013842733203
H           -2.82661003273796        2.21937154141692       -1.75692801984300
H           -1.45687332071088        3.05073752459332       -1.03282758977007
H           -1.56508988306497        0.01460151004095       -1.30142425373353
H           -0.97575183643984        1.07300206871277       -2.58995952778944
H           -0.65850492312507        1.36337115815532        1.11255775928670
H            0.70970402813986        2.04004972110462       -0.81981567324967
H            2.65964977446652       -0.52294952269662        0.57001112639299
H            2.54133245268300        1.22665141170166        0.18950366913039
H            3.09591170182589        0.69735335926340       -2.19194297780112
H            3.14171822223626       -1.03477254629505       -1.77060022246494
H            5.24189391872445        1.92570349340199       -1.95573547562529
H            7.52848250689593        2.01325762799162       -1.15645145494892
H            9.21547068726041        2.18837653575946        0.47473877612444
H            9.71986214919234        1.28406556857484       -0.98219359623801
H           10.52539021703514        0.98720298960833        0.57695933785284
H            3.76511726429666       -4.09958232364407        1.92223819866160
H            2.19362549297630       -4.30775841572141        1.13430339210920
H            3.70353083084858       -4.51394753778528        0.18858176839209
H            4.59959197432950       -1.75718509614914        0.16370623190333
H            0.36942044560836       -1.57574621598957       -1.73647883825615
H           -0.34439928226978       -1.50208744414250       -0.11886590943768
H            1.35902074475188       -1.98277822593215       -0.30963924422754
H           -4.52517764428045        2.73269701523879       -0.19038192195292
H           -3.77314722500606        2.87232286111469        2.75127201750494
H           -4.84678037143370        1.67036872904040        2.02257945405132
H           -5.31342987667396        3.37168774833385        2.04588893802150
H           -2.55617837318934        4.57588929758617        1.21821379216273
H           -2.97244262343209        4.61121009445630       -0.50399090809643
H           -4.17962589391720        5.02445347174100        0.70358544138150
H           -0.68231752416727        2.83887467610352        2.90361244329009
