72
 energy: 121.087379831592 xtb: 6.6.1 (8d0f1dd)
N           -1.61326210439989        2.89083451623992        2.34938107091135
C           -1.59634223241262        2.11109380168019        1.36252549014617
C           -2.70590096918250        1.97030711112605        0.35740325197146
C           -3.27722499039005        0.56326347710020        0.42623779276073
C           -4.20454407051559        0.13181252629221       -0.52373448263079
C           -4.75924595533869       -1.13300658738778       -0.47437123515321
O           -5.67664942451918       -1.62315212609470       -1.35548851596900
C           -6.17544804630472       -0.76324027869762       -2.35033891584534
C           -4.37472999415504       -2.02659961280001        0.54927102173084
O           -4.96628482492121       -3.25368490618910        0.51524040257859
C           -4.65980818526801       -4.16244101438721        1.54177447167427
C           -3.45376935877040       -1.59756506709867        1.48446151292576
C           -2.92070070340092       -0.31598135386257        1.42566084751501
C           -2.08917948121565        2.20505619459278       -1.04850660352817
C           -1.15460062623677        1.08861628072753       -1.56695954095168
C            0.19133120036529        1.09820649418738       -0.93509012268713
N            0.85825067822719       -0.00450529731371       -0.52338916263222
C            2.26599109682104        0.12941514686140       -0.26493131412412
C            3.11820211273463       -0.07352638628407       -1.54072590036986
C            4.55265115745391        0.04903298041660       -1.14593457770988
C            5.46959695748611        1.03785783942227       -1.30310498844398
C            6.75370228194161        0.93450091917441       -0.76436701334892
C            7.20754653095984       -0.09075116636552        0.05817055425351
O            8.49216928864584       -0.05906897649229        0.55244435382013
C            9.37646660515800        0.98739986862608        0.18627879063791
C            6.20164072097816       -1.07549754339896        0.26782952095796
O            4.76932890678004       -2.38987798804714        1.37494841393855
C            4.37887441874672       -3.58952413945012        1.10450246943003
C            4.99355499407738       -0.97287604024701       -0.35871256352507
C            0.32464458774343       -1.34602625817014       -0.66103934209023
C           -3.85924212212388        2.97542032312612        0.58928326272642
C           -4.53138171751069        2.72520946708053        1.93666542119647
C           -3.39496451457501        4.42737604613856        0.50202067174148
H           -4.49863156409868        0.80614969077423       -1.31177475722029
H           -6.64796930222058        0.12749181835445       -1.92115057370912
H           -6.92115487160877       -1.34098110321160       -2.89459009891343
H           -5.39185131070369       -0.44825477354417       -3.04679871376340
H           -4.92946461284463       -3.76623534842991        2.52729980546945
H           -5.25660306617767       -5.04581345035696        1.32698008055019
H           -3.59849474043371       -4.43482480304736        1.54393027200914
H           -3.13649684439163       -2.25484237585167        2.27809110879370
H           -2.21820676415942       -0.00959562892128        2.18255583008728
H           -2.90973737381362        2.32582441241960       -1.75607757707767
H           -1.53656687934188        3.14668183031646       -1.03997713081600
H           -1.62273738638882        0.11754872815823       -1.44532418428249
H           -1.06093727903697        1.25588535056380       -2.65576220555233
H           -0.74031818978723        1.48596898274724        1.08089978677948
H            0.79625894072335        1.98188142559416       -1.08305057552976
H            2.54075878795382       -0.59917010353205        0.51599389328612
H            2.46708454585936        1.13755353243336        0.11922538521711
H            2.86369103244850        0.65381021430972       -2.30758154517360
H            2.92597921403486       -1.08815032460557       -1.91405730605539
H            5.17396345932756        1.89016194587934       -1.87797352317123
H            7.47363851285052        1.70207541669500       -0.96394447181273
H            9.02225579074620        1.94606903070078        0.56652158297164
H            9.54109791644847        1.04511757111567       -0.89399677053899
H           10.33773611962200        0.76728631844523        0.65518249162285
H            4.90150247584470       -4.25571055090599        1.82341229586354
H            3.24119343445694       -3.42648392541915        1.23940589199346
H            4.54587651805276       -4.02046554479058        0.09926684918111
H            4.21476909461549       -1.67796106394710       -0.20880673180063
H            0.16290906662765       -1.63433383281258       -1.70861109879736
H           -0.62884313788702       -1.43332835536958       -0.13809583202787
H            1.02860664310008       -2.05566952712283       -0.22168294418478
H           -4.60184267247036        2.80696803143365       -0.20090288522625
H           -3.81683578815436        2.89530807271337        2.73326800541975
H           -4.90026895324746        1.70396257584034        2.00650051226579
H           -5.36687178766608        3.41102879168860        2.06086001376934
H           -2.60980120060642        4.60058688715704        1.22952881142103
H           -3.03008438548521        4.67927637798430       -0.48968459690988
H           -4.22586956294427        5.09008625523309        0.72455069902022
H           -0.74935923921173        2.85802785933874        2.88399771733659
