72
 energy: 24.576365103275 xtb: 6.6.1 (8d0f1dd)
N           -1.56016545195496        2.87277947938766        2.27888952058765
C           -1.58419268590683        2.13697210138172        1.26006007063908
C           -2.73757276479560        2.01851674785407        0.30882525756604
C           -3.30670514292525        0.61009262589247        0.38426799371589
C           -4.25981125524971        0.18693832520484       -0.54250850936215
C           -4.80750785599890       -1.08085110589820       -0.49665216477988
O           -5.74816174716012       -1.56416188459196       -1.36084809566447
C           -6.27602782202880       -0.68898661643502       -2.32541159529062
C           -4.39210850220066       -1.98523581759589        0.50323197100501
O           -4.98227564475511       -3.21538099638472        0.46693539655704
C           -4.65671365908206       -4.13207820587076        1.48004363586670
C           -3.44516383702142       -1.56751489436502        1.41741819625692
C           -2.91532268145904       -0.28370684164867        1.35879216601224
C           -2.14694935476237        2.25696211788208       -1.10670188520960
C           -1.20423725088686        1.15078362634144       -1.64374898046170
C            0.11351862617371        1.13999406765988       -0.95059906363259
N            0.75083146684994       -0.03461866024530       -0.52936896541032
C            2.14799770938673        0.02960136494838       -0.22851666596120
C            3.03516823467716       -0.30321254222665       -1.45875125990823
C            4.45048751722025       -0.18011311628796       -1.05779676871683
C            5.29658769217501        0.88350336726462       -1.18705837342950
C            6.59034177664743        0.83940378598590       -0.65787743164909
C            7.06820156415139       -0.21797175375608        0.12544426265366
O            8.37251399873933       -0.19776321534793        0.59549085656028
C            9.23545959240541        0.88030107114721        0.25753252708298
C            6.05992813745850       -1.27292471995563        0.37440737366378
O            5.98736565085315       -2.39512191661439        1.23065421652953
C            5.27876699340872       -3.56762824061535        1.13038191400110
C            4.88645364625258       -1.21339796049297       -0.29778694714720
C            0.14860305042252       -1.33951435026592       -0.64176583946528
C           -3.88556362852355        3.02455004962362        0.58072851782776
C           -4.53714664169518        2.75523663765902        1.93584478613477
C           -3.40790319586969        4.47551302942314        0.52307190737217
H           -4.57398591063783        0.87051762195872       -1.31420466686675
H           -6.73778297678117        0.19225784609906       -1.86598664537032
H           -7.03588844117841       -1.25965740074129       -2.85723403604908
H           -5.51381638526286       -0.35971425699991       -3.03900407536619
H           -4.90068469902120       -3.74146974494939        2.47500309758367
H           -5.26501064049772       -5.01040239353297        1.27292551871449
H           -3.59631250538946       -4.40940946865620        1.45651359474310
H           -3.10578654435732       -2.23592193612822        2.19442904354128
H           -2.19055349477580        0.01289711448891        2.09972513948752
H           -2.98257842670127        2.37980441031717       -1.79516250136818
H           -1.59396104468690        3.19829295591986       -1.10820573023953
H           -1.68671570856143        0.18044741641153       -1.55344877120439
H           -1.11453007411671        1.35658944816910       -2.73204629574805
H           -0.72152357522677        1.56341660525726        0.87505018177757
H            0.76562067825444        1.97741949747393       -1.12238203483430
H            2.35506726023277       -0.65901006405457        0.61184948868029
H            2.39718483170842        1.04717497575121        0.10279872116189
H            2.80858906229170        0.37687938125941       -2.27533319912682
H            2.83146848236244       -1.33704424759143       -1.75465053990208
H            4.93111413948379        1.73619939975868       -1.73010930660303
H            7.22839797604967        1.69681817353110       -0.84206949264161
H            8.86555105898587        1.83016633335200        0.67078863187595
H            9.37500672734952        0.99972224449386       -0.82141710652024
H           10.20624096199761        0.65967741832927        0.70764395266670
H            5.86982430422561       -4.27539274481700        1.76496745483919
H            4.25183153300622       -3.36859613863983        1.51847952426059
H            5.22593233591478       -4.00680983976499        0.12973369922435
H            4.20369704109855       -2.01785759452797       -0.12732793862534
H           -0.01553838205323       -1.65438832222454       -1.68184305075955
H           -0.81524835902119       -1.35328840450724       -0.12901922122301
H            0.80531910952203       -2.07590827967805       -0.16771188638773
H           -4.64071701122094        2.87760040027287       -0.20227545871839
H           -3.78926979268825        2.89861601721711        2.70933438436493
H           -4.91658377538030        1.73642973241497        1.99207125084126
H           -5.36556710384493        3.44198551807905        2.10059392159350
H           -2.61586413305905        4.63390551888232        1.25322605585997
H           -3.03948618958120        4.74180491131939       -0.46426124542865
H           -4.23479503926024        5.14013959193411        0.75707160283643
H           -0.68607111654493        2.82717652581757        2.79473536265189
