72
 energy: 8.586148378021 xtb: 6.6.1 (8d0f1dd)
N           -1.53896029471584        2.84435482857594        2.26705554528267
C           -1.57442632049418        2.14156111409953        1.22591730586235
C           -2.74252643117336        2.03318885825905        0.29003140486088
C           -3.31314226098206        0.62457894484950        0.36855304096062
C           -4.27620109796712        0.20548329499160       -0.54996884583353
C           -4.82201568417328       -1.06316307749636       -0.50484655764315
O           -5.77055315677267       -1.54361011618863       -1.36191942479252
C           -6.31026985657699       -0.66553849479167       -2.31659303909351
C           -4.39615209555186       -1.97187888791659        0.48707799860331
O           -4.98624065295390       -3.20193612813502        0.45008217408363
C           -4.65754386351466       -4.12243261693396        1.45916023609559
C           -3.44068929517262       -1.55809196435073        1.39444790525724
C           -2.91062355112110       -0.27393330195494        1.33528615611618
C           -2.16413764132174        2.27153190596649       -1.13091666288144
C           -1.22124133529589        1.16646863801869       -1.66457536388022
C            0.07829409054957        1.13828653460439       -0.94095385538951
N            0.71291454057152       -0.04160724335455       -0.53701986304930
C            2.10652175476586        0.00280269779746       -0.20840613613484
C            3.01222385873303       -0.37824869641562       -1.40927356092760
C            4.42874145386320       -0.25805108749975       -0.99765214348868
C            5.23955937384667        0.83717272726709       -1.14333780865224
C            6.53929425512377        0.83609124407174       -0.63433829714904
C            7.05811598887870       -0.22769429413432        0.11965066681295
O            8.35957825913283       -0.22109202808657        0.58666493351110
C            9.18870638016411        0.88869159499270        0.27890165523334
C            6.12707590505986       -1.30906535142823        0.35449592953074
O            6.28519624189703       -2.41446586410042        1.17802140500554
C            5.57416740061546       -3.59477168543079        1.14346830393098
C            4.91364466348048       -1.29642967607863       -0.26096571614287
C            0.08897792312110       -1.33451474289719       -0.63479677474982
C           -3.88602701366117        3.04196358352470        0.57894729845335
C           -4.52661882916149        2.76331681529558        1.93722198250879
C           -3.40621410419917        4.49215526474135        0.53058039317068
H           -4.59890368695535        0.89238801446942       -1.31511729616500
H           -6.76874554846856        0.21208557202422       -1.84730692856655
H           -7.07498103837159       -1.23574655754081       -2.84190626960439
H           -5.55636714713267       -0.33211180588375       -3.03732572610339
H           -4.89370280996981       -3.73321426101305        2.45646238907244
H           -5.27078682243519       -4.99838612986853        1.25486125055902
H           -3.59832708721992       -4.40329909373437        1.42732170860598
H           -3.09518258780629       -2.22968745329980        2.16652181696779
H           -2.17958461184636        0.01892023398474        2.07215933281098
H           -3.00276268677123        2.38796696401040       -1.81784655713659
H           -1.61231372224663        3.21334058680109       -1.13571132408691
H           -1.71468273382883        0.19966177891271       -1.58946380323255
H           -1.08935791696502        1.38143739777471       -2.74619555785247
H           -0.71015753273917        1.59237281895415        0.80488371062419
H            0.72843838629914        1.98518090636316       -1.06938703467243
H            2.28963503201907       -0.66840425478445        0.64989360797735
H            2.37094778061655        1.02167506811030        0.10294831045445
H            2.79924234832342        0.28418774124989       -2.24702988840394
H            2.79808258954988       -1.41366475493697       -1.68663936991397
H            4.84578564502126        1.68434714239113       -1.67981114317668
H            7.14389712879665        1.71722522681196       -0.81868291442510
H            8.79887467620989        1.82250092387418        0.71117003329179
H            9.32385875711277        1.03922622103124       -0.79919501490055
H           10.16363114572491        0.68952655282968        0.72328469848220
H            6.20438741207392       -4.28644111469095        1.74252039884801
H            4.58224118959417       -3.41477063173194        1.59572545402521
H            5.45617292034609       -4.02790131343582        0.14489404989844
H            4.26511141434239       -2.13060572198670       -0.09222031995290
H           -0.07643254412281       -1.65437479784811       -1.67268425713529
H           -0.87619109032209       -1.32392803432978       -0.12399273797139
H            0.73080938382335       -2.07743768041305       -0.15197773403255
H           -4.64799376664692        2.90320814731685       -0.19941155058463
H           -3.77377177534884        2.89933488665790        2.70724137398067
H           -4.90641808454871        1.74463237829637        1.98784881737570
H           -5.35452613143427        3.44828831374462        2.11366069501171
H           -2.61234138050143        4.64831245195909        1.25922730398183
H           -3.03893621740577        4.76340342549032       -0.45577460069178
H           -4.23293000064842        5.15526354642759        0.77023143171779
H           -0.65922469765127        2.80754599645883        2.77444877455197
