72
 energy: 109.527126295215 xtb: 6.6.1 (8d0f1dd)
N           -1.61121208552334        2.89893472107559        2.33610197625455
C           -1.59976118332434        2.11666260810466        1.35122621480791
C           -2.71311958051906        1.97828358664021        0.35107844712300
C           -3.28341626868808        0.57111834889027        0.41984619472660
C           -4.21467455314067        0.14065409015489       -0.52637984462854
C           -4.76798985457923       -1.12489898621552       -0.47829537037492
O           -5.68940429088206       -1.61511876600481       -1.35726292256703
C           -6.19202377480708       -0.75088109219615       -2.34645536134942
C           -4.37818087588979       -2.01957391881283        0.54173515514151
O           -4.96937982344928       -3.24746357549559        0.50748141785664
C           -4.65867623746024       -4.15722669841292        1.53159151381375
C           -3.45294784824790       -1.59245471239292        1.47348995363486
C           -2.92087827231711       -0.31043911454712        1.41501827617108
C           -2.09845703723869        2.21387580266238       -1.05563648410616
C           -1.16166212056434        1.09958588052343       -1.57959031371881
C            0.18092153159458        1.10762047568194       -0.93747126990244
N            0.84306184642523       -0.01399739940856       -0.52009337973892
C            2.24968272164898        0.10890717920538       -0.26296651635710
C            3.10531927585767       -0.11239487131055       -1.53679425824366
C            4.53244143196167        0.01319356959835       -1.14074189610628
C            5.44311624784516        1.00961435989105       -1.28607560127011
C            6.72688513483536        0.89949895943599       -0.74474469328915
C            7.17604981585533       -0.12978650877428        0.07764847897106
O            8.46736828877934       -0.08863378574504        0.56470807433107
C            9.35235837355568        0.96139845566835        0.19709280621404
C            6.15321486968630       -1.13155562797366        0.28777323720354
O            5.01229926952882       -2.37689783982572        1.37561753977540
C            4.54079970779049       -3.56852897827656        1.11169553129694
C            4.95261343143855       -1.01015507332813       -0.35439067418503
C            0.29630804708637       -1.34785547161785       -0.65747169264122
C           -3.86673199874476        2.98224582086345        0.58681358692219
C           -4.53550408236142        2.72970841956929        1.93575637671946
C           -3.40024236212830        4.43439952518909        0.50457702090313
H           -4.51129194255472        0.81667967753145       -1.31197501778999
H           -6.66257800571891        0.13852426639025       -1.91212071217256
H           -6.94012036294327       -1.32658407700987       -2.88938004067976
H           -5.41160828561312       -0.43309468739385       -3.04523738717657
H           -4.92390173171524       -3.76216833936564        2.51894107753995
H           -5.25696845687124       -5.03999541503969        1.31799619834157
H           -3.59726995455606       -4.42989896739178        1.52942279422403
H           -3.13160152795443       -2.25176201625431        2.26413235681058
H           -2.21428319108517       -0.00545513754797        2.16881941478739
H           -2.92299991612217        2.33635520479909       -1.75723849386777
H           -1.54631586769584        3.15587446731954       -1.04913940121851
H           -1.62910674787604        0.12743795677285       -1.46241830033638
H           -1.07694805571406        1.26776083054225       -2.67043811766157
H           -0.74069278348083        1.50048576386832        1.05006192977128
H            0.80600032970269        1.97408993724185       -1.11614987949945
H            2.51164347417081       -0.61332204164993        0.52897674572551
H            2.45731952649419        1.11992980282234        0.11329243844680
H            2.84984878237648        0.60759935306260       -2.30958200978919
H            2.91416349091621       -1.13248882565796       -1.89567957954430
H            5.13705784095257        1.86526011418959       -1.85246311332812
H            7.43763546893285        1.67944008636945       -0.93688257625911
H            8.99911303542994        1.91900325133367        0.58158252897849
H            9.51466715998406        1.02457518965319       -0.88256358472486
H           10.31611392661477        0.74191023511189        0.66283575291578
H            5.05822599200352       -4.26721627520173        1.81216109642689
H            3.41728741674078       -3.38265909667498        1.29088970762884
H            4.65985524651505       -4.00428882093815        0.10813295346004
H            4.17555375744026       -1.72144054462922       -0.20419441917425
H            0.13371862504947       -1.63990243775484       -1.70424956888181
H           -0.66009927492807       -1.42199956928008       -0.13707540258723
H            0.99163297375332       -2.06468164624526       -0.21205661843657
H           -4.61075607969981        2.81680746502049       -0.20269586606203
H           -3.81418178935212        2.89562997185807        2.72732618863609
H           -4.90523663673558        1.70862158470857        2.00419340590135
H           -5.37021990227082        3.41564791442966        2.06683795158812
H           -2.61456970835234        4.60519855522625        1.23336257641062
H           -3.03352254767162        4.68913286687990       -0.48589584963033
H           -4.22960304188882        5.09864244540286        0.72849677183369
H           -0.74400662495573        2.85941175134741        2.86684060221807
