72
 energy: 123.463014857426 xtb: 6.6.1 (8d0f1dd)
N           -1.60888403679472        2.88094136228356        2.35166978918315
C           -1.59065381729460        2.10575956592524        1.36197710465961
C           -2.69876183818436        1.96190168848862        0.35797600288650
C           -3.27045884178980        0.55468452328284        0.43026730853703
C           -4.19394802721457        0.12233825517751       -0.52319616905359
C           -4.75017663890503       -1.14172636534199       -0.47195589087781
O           -5.66450761345256       -1.63176946798673       -1.35400166007479
C           -6.15920890239012       -0.77602350988869       -2.35419172923487
C           -4.37094396028135       -2.03339848505028        0.55594047812379
O           -4.96331618944165       -3.25931726443154        0.52287337716622
C           -4.66151637759454       -4.16753785999933        1.55153258917477
C           -3.45457990632163       -1.60227687254157        1.49501937229706
C           -2.92032288779421       -0.32120322330940        1.43540330988661
C           -2.07897740928947        2.19635180573693       -1.04532838622560
C           -1.14729322171551        1.07601996574632       -1.55675037624660
C            0.20109383195003        1.08760086948012       -0.93468364715132
N            0.87809680802048        0.00022004940584       -0.51880201527430
C            2.28392805728926        0.14751318689169       -0.26527391867333
C            3.13686242839710       -0.03981725052109       -1.54344467028749
C            4.57301455985471        0.07159312450689       -1.13853369991228
C            5.49554377277955        1.05666627893793       -1.31395448499912
C            6.78218700165314        0.97578624706680       -0.78187563398461
C            7.25171352533019       -0.04418106089448        0.03308457456698
O            8.52297384748790       -0.02897423527395        0.53770310435363
C            9.40442958005779        1.01463979916838        0.17534173316499
C            6.26777762130460       -1.01410427054099        0.24149549904090
O            4.52641617562317       -2.40195846978262        1.32099038781091
C            4.18903233851220       -3.61464800112943        1.07903380352246
C            5.05722709210532       -0.93920989099564       -0.34577252929415
C            0.35348529547265       -1.34319315991668       -0.66429254939079
C           -3.85151072165536        2.96791381353955        0.59050423034476
C           -4.52628488901120        2.72031374200546        1.93731007075455
C           -3.38898560095427        4.42031355778876        0.49974829901028
H           -4.48617676052503        0.79559373963987       -1.31245124482114
H           -6.63410324441088        0.11588813436072       -1.93036778124530
H           -6.90296611654634       -1.35648511989686       -2.89799476237896
H           -5.37259871790346       -0.46386414689623       -3.04847899080134
H           -4.93569359801065       -3.77050456808568        2.53514418867689
H           -5.25705491547692       -5.05148039567458        1.33585230489745
H           -3.60076468253017       -4.44076212774034        1.55788388817079
H           -3.14151107256045       -2.25760588469123        2.29184266478488
H           -2.22202784867963       -0.01351106873534        2.19563133582334
H           -2.89727708620561        2.31531124250398       -1.75575913929406
H           -1.52615595022688        3.13734810922867       -1.03273255240469
H           -1.62310462950597        0.10962119712982       -1.42562286109333
H           -1.04772869701106        1.24095497742978       -2.64419576229656
H           -0.73922701535489        1.46865559862048        1.10765314245110
H            0.78822779476674        1.98865293239413       -1.05225989016474
H            2.57111877711008       -0.58488271244843        0.50675046819729
H            2.47629381228083        1.15402619681766        0.12603339165551
H            2.87969471191358        0.69679303048010       -2.30397317511441
H            2.94242917348394       -1.04762158024530       -1.93182156624198
H            5.20987827974893        1.90368806165093       -1.89934787014031
H            7.49956811600845        1.74071779474676       -0.99029232573206
H            9.04765474263220        1.97184674856231        0.55252548109112
H            9.56623534153606        1.07147817777846       -0.90534355392302
H           10.36242723578423        0.79294500313758        0.64684497631925
H            4.73119752743780       -4.22401545924832        1.84712130772635
H            3.04999657048814       -3.50280463285870        1.17274120350740
H            4.44404185334611       -4.05278748115562        0.09319645975676
H            4.27994147935398       -1.65800232285223       -0.15699152809045
H            0.18974825271741       -1.62356653517793       -1.71285847381159
H           -0.59687392610700       -1.44284753391137       -0.13839306012514
H            1.06486262077007       -2.04699532897983       -0.23157334414978
H           -4.59343661871881        2.79786610593829       -0.19916997803101
H           -3.81779932251623        2.89468130307467        2.73854002586198
H           -4.89469818394276        1.69909340428892        2.00866538605096
H           -5.36317201508631        3.40530902429381        2.05565924498628
H           -2.60415372440537        4.59662667407338        1.22622953444569
H           -3.02568025196233        4.66958106619140       -0.49311809601671
H           -4.22175443577161        5.08141274699708        0.72069069311477
H           -0.75238239462332        2.85285685499879        2.89744956439363
