72
 energy: -5.749558458411 xtb: 6.6.1 (8d0f1dd)
N           -1.49877392124325        2.78477630791953        2.24129476002569
C           -1.55449985508331        2.14952213193839        1.15915500657076
C           -2.74731706739824        2.05766335435784        0.25152131795720
C           -3.31782650927807        0.64762420284340        0.33288013633317
C           -4.30239216389082        0.24152728004327       -0.56975349716310
C           -4.84544003035811       -1.02829501753811       -0.52524162054675
O           -5.81267686406086       -1.50014186265489       -1.36338299223077
C           -6.38037820241968       -0.62061717605920       -2.29909538488052
C           -4.39904387586407       -1.94605041506839        0.45154588069232
O           -4.99100657582582       -3.17363148385741        0.41651071755811
C           -4.66217005319708       -4.10388185385329        1.41707256729866
C           -3.42678362378902       -1.54332870746930        1.34623482381905
C           -2.89318520567819       -0.26027588882407        1.28516660481733
C           -2.19321156181184        2.29619403310338       -1.17791469844687
C           -1.25749124460700        1.18065173967753       -1.67313015841696
C            0.01313649027991        1.13025013725897       -0.90101720415534
N            0.64579083758059       -0.04867279050004       -0.55713313429668
C            2.01984006434530       -0.03400686145886       -0.16498674322481
C            2.95404744664207       -0.51610632822083       -1.30049392802539
C            4.37702694238855       -0.40472395095758       -0.87157839115706
C            5.10943990083700        0.75004244638291       -1.06322035997648
C            6.41869283117313        0.84334475860334       -0.60967678254533
C            7.01781402014196       -0.21085177258677        0.06553618160343
O            8.29941349442228       -0.20965388943296        0.53507744633775
C            9.09463773302346        0.92950657949436        0.31022315493607
C            6.25124973364630       -1.37877517959854        0.29731671198068
O            6.83105029779031       -2.39812709434896        0.99584200531067
C            6.16813033901851       -3.61829369816636        1.15298891900484
C            4.96356282340514       -1.45650707776112       -0.18440446206158
C           -0.02675171522756       -1.31349320409933       -0.62216986034213
C           -3.87457537980158        3.07369298452509        0.58240346101472
C           -4.50021511591692        2.77452620259671        1.94365019747199
C           -3.39688848300179        4.52398425233251        0.54749879826406
H           -4.64705418098273        0.93658031176854       -1.31726145602931
H           -6.83357840293546        0.24956523994960       -1.81181210168907
H           -7.15532387821830       -1.19520386574606       -2.80449273707596
H           -5.64644944617595       -0.28084264108668       -3.03816317409351
H           -4.88365575593777       -3.71757259052439        2.41822442865393
H           -5.28717895746164       -4.97340116884207        1.21873414239175
H           -3.60756429742947       -4.39776902389833        1.36895927111576
H           -3.07361839759784       -2.21860164454540        2.11126704965866
H           -2.15020032936102        0.02439470245958        2.01362343458561
H           -3.02784282419122        2.38594583384204       -1.87304894650469
H           -1.64688948966286        3.24059754360859       -1.19282603348919
H           -1.78811218777012        0.23161601833481       -1.62679280477985
H           -1.01798962406776        1.38218020542451       -2.72637279932546
H           -0.68960627232356        1.64133659428873        0.66936485108438
H            0.65686915973889        1.99191712473146       -0.96751031311658
H            2.15024158299470       -0.66990297148582        0.72029668690216
H            2.30981256947720        0.98400367313292        0.10782718307736
H            2.77438764305585        0.10888235805332       -2.17720567333195
H            2.71021225285661       -1.55054603401491       -1.54440194421610
H            4.66502360255365        1.58485623390434       -1.58432492182208
H            6.96765793264118        1.75473188939112       -0.79424329147118
H            8.67820103747669        1.82032275087352        0.79487309744663
H            9.23014832716509        1.13192016603872       -0.75889360678902
H           10.06174758940074        0.70442323538347        0.75515368302518
H            6.88657815908606       -4.25316462525857        1.67527885290749
H            5.26158844821580       -3.50535149661278        1.75830967798848
H            5.90926994387633       -4.08649206740846        0.19684698994562
H            4.38316207656096       -2.34702547355113       -0.01817458507961
H           -0.19669024053568       -1.63460087154807       -1.65695087476057
H           -0.99082851871405       -1.25684096614859       -0.11051590133313
H            0.58692344002045       -2.06446230528027       -0.12546410721530
H           -4.65005182743522        2.95479685727787       -0.18478562354944
H           -3.75695631951456        2.90162959321602        2.72509330770940
H           -4.87936252186097        1.75540767086310        1.98063081909753
H           -5.32670207751062        3.45753127221452        2.12787430613043
H           -2.60160695533704        4.68049847161118        1.27108231497904
H           -3.03955577912065        4.80696709939842       -0.43940179823221
H           -4.22572869358361        5.18050197637785        0.80198874001461
H           -0.60677117703718        2.77378359870387        2.73312910210965
