72
 energy: 117.036306767838 xtb: 6.6.1 (8d0f1dd)
N           -1.60244186999367        2.86549074849497        2.35478847007569
C           -1.58523377071401        2.08683438551426        1.36909985500476
C           -2.69084132051410        1.95136925846473        0.36062564737464
C           -3.26439326710546        0.54530810776171        0.43416944676294
C           -4.18436475643507        0.11232081680685       -0.52212042321658
C           -4.74157103735614       -1.15111811965464       -0.46994896006371
O           -5.65309420482019       -1.64242994949797       -1.35329637266970
C           -6.14340220050071       -0.78969163993487       -2.35817436471179
C           -4.36652288662942       -2.03975207218622        0.56221807472181
O           -4.95854835968992       -3.26423681867762        0.53006900738216
C           -4.66305604939344       -4.17249464827235        1.56077880552606
C           -3.45420975428185       -1.60782581969857        1.50463568269712
C           -2.91906188224488       -0.32739980100815        1.44436830321946
C           -2.06944265377086        2.18600097291840       -1.04105256568083
C           -1.13979404490577        1.06366722033064       -1.54831035085316
C            0.21066090044784        1.08536184818897       -0.93619024464872
N            0.89648774156576        0.00833186308901       -0.51432612574992
C            2.30061408405779        0.16859945735457       -0.26791506281041
C            3.15558550787382       -0.00429185061477       -1.54678455609263
C            4.59212425286796        0.09502271882497       -1.13560062915805
C            5.51940072596213        1.07570380787378       -1.32624629000591
C            6.80710015126373        1.00649497330470       -0.79591298269954
C            7.28292317561926       -0.00819453091057        0.01980380283865
O            8.54916583941781       -0.00274820235567        0.52651573645795
C            9.42796273224066        1.04084164994194        0.16552055592549
C            6.31054725453193       -0.97875642239198        0.23062399627692
O            4.32925174980353       -2.38235409876371        1.22550817404717
C            4.02503570071829       -3.61978869751678        1.04789514369758
C            5.10624336777430       -0.90579228696891       -0.33858730736514
C            0.38329706099912       -1.33875521948653       -0.66770874228499
C           -3.84249626193661        2.96017645849264        0.59259422871676
C           -4.52061109947198        2.71537915735796        1.93837232245573
C           -3.38291824630484        4.41377590951861        0.49811178638855
H           -4.47436512939928        0.78469183202122       -1.31240831955745
H           -6.62077593520099        0.10347055297002       -1.94002574983744
H           -6.88532204046590       -1.37264992851358       -2.90138431727315
H           -5.35448349986548       -0.48083713394751       -3.05114831833233
H           -4.94214872385757       -3.77495554147707        2.54247702731083
H           -5.25769407809548       -5.05693961374872        1.34403920242404
H           -3.60279662726694       -4.44680075113534        1.57177309380668
H           -3.14722060370283       -2.26076966842450        2.30530208363645
H           -2.22516765001424       -0.01832488716638        2.20819125277422
H           -2.88607562794031        2.30456281041447       -1.75350327171705
H           -1.51555148571017        3.12614077964875       -1.02677999859951
H           -1.61678794055581        0.09863600447543       -1.40715886757955
H           -1.03928217010835        1.22170271903841       -2.63543070779493
H           -0.73606450378812        1.44621579893791        1.13495698114032
H            0.78003999684812        2.00003686596510       -1.02406269953857
H            2.58647011643268       -0.56516144830023        0.49543482977192
H            2.48611272424217        1.17229765774318        0.13167443622466
H            2.89571989697583        0.74097277752806       -2.30004006164081
H            2.96116903230869       -1.00573933809300       -1.94940541454588
H            5.24473156604050        1.92046915060709       -1.92093596093033
H            7.51651763515036        1.77711646165910       -1.01291808343579
H            9.06915442657578        1.99879808896609        0.53938685563356
H            9.58772670264565        1.09590120115941       -0.91582174046146
H           10.38429564747892        0.81822878117760        0.63864616665320
H            4.57976866453309       -4.18616959403975        1.84160212539469
H            2.88302770628072       -3.54860734315898        1.12618675386254
H            4.32523315604568       -4.08271874034070        0.09365097972426
H            4.33485819517901       -1.65135694119329       -0.10254914791197
H            0.21731447333204       -1.61162078632689       -1.71725864932282
H           -0.56417785570432       -1.45278893774810       -0.13903290473292
H            1.10201717805375       -2.03850429834202       -0.24175680477210
H           -4.58386014227104        2.78819816537980       -0.19751262260748
H           -3.81659241555824        2.89167042199304        2.74352800898353
H           -4.88893509783189        1.69433037860933        2.01060838426584
H           -5.35883979172824        3.39955733455414        2.05082054444614
H           -2.60027568955913        4.60205112928636        1.22474549421507
H           -3.01999938247623        4.66066038400945       -0.49606414984740
H           -4.21857103700543        5.07247171382388        0.71622613849944
H           -0.75176150883186        2.84336387895820        2.91057236284818
