  25
        -42.12624200
 C          3.3578017602        0.6095404381        0.0138711407
 N          2.2501613935       -0.3039819092       -0.0014570955
 C          2.3323176585       -1.6402973451       -0.0097711692
 N          1.0704493819       -2.1311973730       -0.0084299201
 C          0.1755178545       -1.1030848028        0.0005983203
 C          0.9245529039        0.0696057412        0.0060966240
 C          0.3019979916        1.3674362172       -0.0010550409
 O          0.8703500973        2.4383215294       -0.0130727836
 N         -1.0947477496        1.2663937005        0.0027838032
 C         -1.8505854626        2.5061973829        0.0001210853
 C         -1.8561992152        0.1108573033        0.0041747157
 O         -3.0597363554        0.1442477454        0.0059940610
 N         -1.1719401451       -1.1167733741        0.0019891233
 C         -1.9401730343       -2.3434078833       -0.0012203799
 H          3.8647758146        0.5716373376        0.9804287654
 H          4.0759912450        0.3355434284       -0.7594108611
 H          2.9909604006        1.6215774748       -0.1566461584
 H          3.6633764721       -4.1090332659       -0.0098169542
 H         -1.1433294457        3.3339881947        0.0074261711
 H         -2.4827370932        2.5573070643       -0.8879328693
 H         -2.4964060818        2.5517838730        0.8784902664
 H         -1.7179151460       -2.9366673485        0.8872052437
 H         -1.7264027865       -2.9272088319       -0.8980285252
 H         -2.9962817280       -2.0728807885        0.0050437235
 H          0.8536647002       -3.1168165722       -0.0160370152
