72
 energy: -99.676691778597 xtb: 6.6.1 (8d0f1dd)
N           -1.50790230777089        2.75586679746815        2.40925206305190
C           -1.52753057024498        2.05134062827796        1.37074684390628
C           -2.67867757326825        2.00533824647824        0.40441464349915
C           -3.30408391796678        0.61937261178991        0.41126218230981
C           -4.20395153080652        0.24851917835217       -0.59089457701247
C           -4.79097849421617       -1.00265140815727       -0.60484589952157
O           -5.67383352311940       -1.44821116849747       -1.54351427139537
C           -6.09078561822191       -0.56794286714429       -2.55453490611549
C           -4.48308993742510       -1.93173511527514        0.41410135138591
O           -5.09794917071675       -3.14371495380561        0.30774944094342
C           -4.86611562523875       -4.10234626259740        1.30670331382983
C           -3.61364889325959       -1.55459386008731        1.41968001334116
C           -3.03282176217665       -0.29169653196547        1.41564506130570
C           -2.03601213024916        2.30105399546199       -0.97939098712709
C           -1.20941722205858        1.15211749081678       -1.60873350663611
C            0.11428588186610        0.85105253772722       -0.95109991219917
N            0.58855015906221       -0.45977826491165       -0.81712531894830
C            1.93120198673759       -1.01654865470924       -0.67842116947666
C            3.09333557990686       -0.24481144261220       -1.32924527907029
C            4.34644079944107        0.11692635046770       -0.58092915824640
C            5.19226061631274        1.11875088558121       -1.03325632921574
C            6.55582086225665        1.05990505629388       -0.75764094811616
C            7.07791616199313        0.00541890424421       -0.02878297035466
O            8.39765564219581       -0.23901820679561        0.20321277769012
C            9.35666621337896        0.63785713856087       -0.32704489135517
C            6.19716232979508       -0.93854173438837        0.54366670847168
O            6.76752331045748       -1.95454647790163        1.24627941570824
C            5.91147950651552       -2.94261789706814        1.75881548351517
C            4.84969636224774       -0.84353316609612        0.28841010058946
C           -0.38432749164340       -1.51155236123404       -0.70009533754795
C           -3.81054898448880        3.03022571424311        0.72080728133815
C           -4.49395326729439        2.72008064098603        2.05361298211000
C           -3.33373055834527        4.48160775302320        0.72543061416897
H           -4.44668328043944        0.95477509350733       -1.36795270831075
H           -6.58385680183527        0.31919345832129       -2.14285317994381
H           -6.80719029125088       -1.13112662617387       -3.15110149997979
H           -5.25743003099355       -0.25518394344582       -3.19398760226037
H           -5.19821954274427       -3.75121900713839        2.28968036667402
H           -5.45535932707324       -4.97146352062153        1.01763210985915
H           -3.80913393127527       -4.38561877830923        1.36142434051532
H           -3.37567762876798       -2.23305437731365        2.22318085826708
H           -2.37184397318588       -0.02241650511743        2.22481715928593
H           -2.83756372613204        2.55972089901875       -1.67713575092434
H           -1.40122895426712        3.18342484734152       -0.87945382312770
H           -1.84268578162334        0.26655964726647       -1.64667067893900
H           -1.04465324610771        1.46373358227476       -2.65473702351984
H           -0.68343946169452        1.43014035496370        1.01760095280042
H            0.83482639744945        1.65030738837666       -0.95463947532264
H            2.03250334154336       -2.02363553179797       -1.16853489257402
H            2.09756367448847       -1.22319282678458        0.38668110853361
H            2.73283252765100        0.68245799479292       -1.78858268572739
H            3.44697081807655       -1.09167038493542       -1.98563795686410
H            4.82458019405080        1.93029869282660       -1.64658492522496
H            7.21445082965743        1.80052069468145       -1.18943206794398
H            9.23304459960326        1.65535920599128        0.05861146964906
H            9.33150197249405        0.65935911902379       -1.42219067471253
H           10.31498946331151        0.24135119593890        0.00529127603979
H            6.56283933752820       -3.66683615728153        2.24242846647899
H            5.21384054258530       -2.52851405022047        2.49548267840274
H            5.34142398399913       -3.44410051492844        0.96656952641501
H            4.15439944004130       -1.55891578728889        0.69320994799664
H           -0.67831470611985       -1.87230346405752       -1.68974254863648
H           -1.26210361449455       -1.17476107704945       -0.15291986127304
H            0.06632665656251       -2.33647527860679       -0.15093299367706
H           -4.56353570895057        2.92501846841489       -0.07108498429889
H           -3.78262458598544        2.82629061226718        2.86586729795570
H           -4.89352723836135        1.70881292711645        2.06334922733059
H           -5.31649478673385        3.41429915223901        2.21767057293333
H           -2.56319378921180        4.61814637558999        1.47745453854168
H           -2.94437743879539        4.78038341872786       -0.24440694198380
H           -4.16995442875490        5.13536626504410        0.96767582433519
H           -0.64995444400528        2.72007519872225        2.95477369633866
