  72
        -99.26788880
 N         -1.7418983010        2.6929179376        2.5196937993
 C         -1.7284947522        2.0942432313        1.4237387876
 C         -2.8950801971        2.0251601703        0.4754317810
 C         -3.4320453424        0.6027541154        0.4318873120
 C         -4.3919967776        0.2508282359       -0.5102574007
 C         -4.9258363353       -1.0358542447       -0.5506476937
 O         -5.8758430819       -1.4565402590       -1.4170626306
 C         -6.4068826613       -0.7549502097       -2.3806455200
 C         -4.4883250532       -2.0186379192        0.3788281440
 O         -5.0608489930       -3.2298929978        0.2595327829
 C         -4.7119229483       -4.2465062337        1.1729074628
 C         -3.5280850070       -1.6558404238        1.3108196664
 C         -3.0121505812       -0.3663849864        1.3368693325
 C         -2.3395292361        2.4264504042       -0.9166130089
 C         -1.4659054164        1.3539361842       -1.5930362364
 C         -0.1218657176        1.2185451566       -0.9881170546
 N          0.4946764784        0.0709849690       -0.7250986881
 C          1.8813755332        0.0577204522       -0.3222458890
 C          2.8175040191       -0.3352589539       -1.4815335000
 C          4.2487241836       -0.2420972872       -1.0302680270
 C          4.9430972209        0.9521489031       -1.1353759793
 C          6.2526309879        1.0545447748       -0.6922703350
 C          6.8942141766       -0.0387315794       -0.1283331180
 O          8.1578948249       -0.0573917965        0.3331636805
 C          8.9436345883        1.1084043121        0.2369139061
 C          6.1883689549       -1.2685442979       -0.0124406469
 O          6.8878684574       -2.2770870969        0.5442054118
 C          6.2882934284       -3.5432917305        0.6776774268
 C          4.8793800810       -1.3461889949       -0.4613624510
 C         -0.1606835344       -1.2046029223       -0.8875842591
 C         -4.0652625776        2.9751518132        0.8721394800
 C         -4.7105246507        2.5513386381        2.1896539719
 C         -3.6464263973        4.4404736741        0.9530216894
 H         -4.7492604935        0.9892683448       -1.2086505955
 H         -8.6672172513        0.8653752038       -3.5081102290
 H         -7.1721383122       -1.2564139160       -2.9396584627
 H         -6.1543305304        0.2683292667       -2.5890490845
 H         -4.9355333785       -3.9535088811        2.2023119964
 H         -5.3233973464       -5.1044294651        0.9010414097
 H         -3.6541068476       -4.5134957087        1.0876778907
 H         -3.1809303803       -2.3686814314        2.0409444533
 H         -2.2922787314       -0.1178420316        2.1006381810
 H         -3.1765589666        2.6476671741       -1.5775909984
 H         -1.7562858983        3.3414112319       -0.8090160666
 H         -1.9967692752        0.4036617388       -1.6112248506
 H         -1.3255808096        1.6751507073       -2.6335343379
 H         -0.8377283691        1.5820001569        1.0113879574
 H          0.4670939520        2.1172085123       -0.8795648734
 H          2.0085695561       -0.6499394676        0.5016833898
 H          2.1626234429        1.0505383231        0.0344738465
 H          2.6463156090        0.3453776272       -2.3171643195
 H          2.5907883146       -1.3501446826       -1.8100230538
 H          4.4695580265        1.8151942799       -1.5782792345
 H          6.7689594029        1.9947727757       -0.7949487814
 H          8.5127954852        1.9309975369        0.8158216528
 H          9.0709927293        1.4205853846       -0.8038710577
 H          9.9125003252        0.8421597830        0.6549483463
 H          7.0472783750       -4.1791968663        1.1291838746
 H          5.4123664858       -3.5058071222        1.3334144586
 H          6.0018715268       -3.9565366448       -0.2943880595
 H          4.3392208460       -2.2769966558       -0.3850448351
 H         -0.3505983123       -1.4206151022       -1.9413966648
 H         -1.1115333315       -1.2164799162       -0.3489735186
 H          0.4751166370       -1.9881360249       -0.4831735460
 H         -4.8212443070        2.8841578647        0.0838814176
 H         -3.9985861558        2.6521508901        3.0022025206
 H         -5.0563135183        1.5213028807        2.1476675927
 H         -5.5653632822        3.1895145164        2.3966292028
 H         -2.8802593432        4.5731982728        1.7104855326
 H         -3.2783922905        4.8116229880        0.0003058396
 H         -4.5075256654        5.0411737809        1.2332583084
 H         -0.8874864639        2.6989919546        3.0677642696
