25
 energy: 0.000000000000 xtb: 6.6.1 (8d0f1dd)
C            3.23720163006194        1.16630919979326        0.08434469647475
N            2.29877817382611        0.07527477071623        0.03981603040599
C            2.58028210190900       -1.21425402444508        0.03006176031096
N            1.43813958087363       -1.93419271955128        0.00098261760884
C            0.39035688448383       -1.05887472636071       -0.00790371836672
C            0.93510056364412        0.21347819449412        0.01709077491437
C            0.09450143893243        1.40504303904423       -0.00410947031874
O            0.49712751527797        2.54126714362870       -0.00342325688240
N           -1.25076640035757        1.06271879480407       -0.03085478223738
C           -2.21907211982101        2.15522099834493       -0.05001256985998
C           -1.81739487048744       -0.20012725993278       -0.04692818574614
O           -2.99983886758376       -0.37846417018721       -0.07008878229737
N           -0.92618586207120       -1.30210215599479       -0.03682761578324
C           -1.46982264913417       -2.64643102187190       -0.06029820460571
H            3.71247264356769        1.21471455160235        1.06488849150277
H            4.00791497605742        1.03430808813993       -0.67357694370751
H            2.69910007168542        2.09770118228144       -0.09130154882931
H            3.56654120610678       -1.63682992603973        0.04233140067262
H           -1.67107961066214        3.09322851271934       -0.02552706933167
H           -2.82428953597071        2.09428624779827       -0.95318082946668
H           -2.87644029173232        2.07745725625962        0.81450067533302
H           -1.17061996399332       -3.19584890659852        0.83242232437030
H           -1.14560257411436       -3.17511610292205       -0.95688275822323
H           -2.55549792440841       -2.55659984320617       -0.07459039797972
H            1.38130855184625       -2.94313852034425       -0.01389874181052
25
 energy: -2.160958678326 xtb: 6.6.1 (8d0f1dd)
C            3.23194698301467        1.17442787421150        0.07463364897385
N            2.30153283243114        0.08855731736168        0.03297671322941
C            2.59861147994666       -1.23712273258284        0.03077723589656
N            1.43045144190940       -1.95020984310867        0.00563208365623
C            0.39514708464311       -1.06965119375639       -0.00678478716435
C            0.92439412416752        0.21055316657470        0.01309783472454
C            0.09858361187116        1.38523454037362       -0.00461468351597
O            0.49652996757075        2.54956237152324       -0.00783913266987
N           -1.26302255643478        1.05298493966154       -0.03126624217499
C           -2.18941721269308        2.19284997714317       -0.03456379408745
C           -1.82502118864661       -0.20932738068221       -0.05357365411234
O           -3.02049228825163       -0.40068919246717       -0.07324530805064
N           -0.93477340449735       -1.31554087372554       -0.03594203187389
C           -1.45986997046430       -2.66623903772069       -0.05235922278101
H            3.70929932618589        1.22780798601503        1.05636160835441
H            3.99999797317868        1.03762433596992       -0.68771951527658
H            2.68122640371525        2.09564499766524       -0.10670361107245
H            3.57897345860474       -1.65681278116620        0.04406491019527
H           -1.70697612615698        3.20309374297541        0.04746074985988
H           -2.73943646962385        2.20536063595513       -0.94517823365630
H           -2.94360077352959        2.03335694411984        0.73725469778882
H           -1.15422227632197       -3.21245353896865        0.84291609215459
H           -1.12224320911722       -3.20236237741951       -0.94232905357950
H           -2.54607119437470       -2.59309687132845       -0.07136317868477
H            1.37066665080930       -2.95452440445167       -0.00465922998617
25
 energy: 6.550439976051 xtb: 6.6.1 (8d0f1dd)
C            3.21991704926559        1.17883937774700        0.05574764237120
N            2.29901678211027        0.09628431293260        0.01992722289933
C            2.61363780860489       -1.26298294320603        0.03218115934591
N            1.41937677946293       -1.96648449268004        0.01317516798396
C            0.39868473084159       -1.08561165580016       -0.00347963772599
C            0.90859299773298        0.20240674065991        0.00622738468722
C            0.10281905116910        1.35442363587852       -0.00809897866599
O            0.48640938473000        2.53976451640116       -0.02049686624937
N           -1.28292185781867        1.04782710141847       -0.02579512664124
C           -2.15596560758141        2.24654222596601       -0.00869664006559
C           -1.83363781554145       -0.21722947978048       -0.05289577321114
O           -3.03517794302390       -0.43262806114616       -0.07442501165411
N           -0.94604350211475       -1.32982513150778       -0.03166827395679
C           -1.44194187772970       -2.69307819988192       -0.03885725385150
H            3.70172481269133        1.24712230592394        1.03684041143030
H            3.98678592741412        1.04243636268723       -0.71016890399985
H            2.65503315976553        2.08985984982520       -0.13280258443486
H            3.58884236830523       -1.67548014529848        0.04631725200891
H           -1.75105920947947        3.33996452728375        0.19805936150670
H           -2.58626899569553        2.40637283077718       -0.97144324589186
H           -3.05876791024957        1.95580258579374        0.60953089713522
H           -1.12718784076799       -3.23315536763606        0.86084313390478
H           -1.08348478813495       -3.24066223898244       -0.91792969690070
H           -2.52949110689904       -2.65317760003850       -0.06554514195547
H            1.36332227087909       -2.96830245516472        0.01048739807817
25
 energy: 19.512640376427 xtb: 6.6.1 (8d0f1dd)
C            3.20398037705791        1.17980453934827        0.03647929848878
N            2.29194247141805        0.09399034239626        0.00751723094356
C            2.61839962417248       -1.28233563189336        0.03243852817651
N            1.41274709280225       -1.98053416352106        0.01890920203735
C            0.39837988642940       -1.10366105931684        0.00030829661169
C            0.89454739807344        0.19004372541787        0.00014159564696
C            0.09793321513339        1.33119413008583       -0.01259786323311
O            0.46737024286741        2.52551495108022       -0.03509216228881
N           -1.30730858424967        1.04758910683251       -0.00851726623932
C           -2.14028831461632        2.29116528037313        0.01830039684353
C           -1.84467083344185       -0.22581146617188       -0.04023987978636
O           -3.04475531549285       -0.46736836176662       -0.06913841723701
N           -0.95456226917243       -1.34293757509872       -0.02558472220653
C           -1.42225785892938       -2.71920227477602       -0.02745145879426
H            3.68920524094331        1.26431916225591        1.01597578769953
H            3.97113545047880        1.04788556267535       -0.73088014330054
H            2.62866616906557        2.08411271276429       -0.15787847672796
H            3.59411735158663       -1.68681545991976        0.04642122809245
H           -1.79066832537553        3.43906948593579        0.34787454435068
H           -2.41157974872724        2.61368170220763       -0.99615724987610
H           -3.15437407699242        1.91131239403075        0.46565471468721
H           -1.09927295014026       -3.25112317785181        0.87681923593413
H           -1.04195514485964       -3.27230721472126       -0.89692986758229
H           -2.51064501633440       -2.71558428942904       -0.06284190976893
H            1.36612858623958       -2.98297381876563        0.02350325367612
25
 energy: 29.041047665401 xtb: 6.6.1 (8d0f1dd)
C            3.18742393412188        1.17709288649378        0.02452788696425
N            2.28264771865887        0.08348120328171       -0.00018646978331
C            2.61388742656903       -1.29335701969637        0.03227589088700
N            1.41030253254112       -1.99045062016612        0.02119236790756
C            0.39458778738662       -1.11995302011070        0.00281894429114
C            0.88456151740803        0.17629579736376       -0.00444741653952
C            0.08791518012004        1.31799934588939       -0.01927905029052
O            0.44563040032985        2.50905256248867       -0.04975849405157
N           -1.32979789954152        1.05313610217706        0.01623816292486
C           -2.13877357198429        2.32452899065074        0.03539616127754
C           -1.85575934097753       -0.23217607817743       -0.01897400381503
O           -3.04789475450897       -0.49739433843620       -0.05938635721494
N           -0.95989546100784       -1.35246965091690       -0.02069357612751
C           -1.40490966654598       -2.74025734374055       -0.02393133192642
H            3.67325725479581        1.27484826581258        1.00254534543354
H            3.95643871424486        1.05255146175474       -0.74196165850849
H            2.60570053364550        2.07796399651296       -0.17319254314614
H            3.59407453446776       -1.69065691308128        0.04560425161043
H           -1.84013111452543        3.51232632665409        0.43259892725845
H           -2.26422946338782        2.74592064754462       -0.96454277466021
H           -3.18425718505503        1.92341269771529        0.33160307334159
H           -1.07739671844165       -3.26576668551578        0.88356867940885
H           -1.00440522930490       -3.29170362512847       -0.88671057208483
H           -2.49268066084251       -2.76982507057967       -0.06895722908574
H            1.37591819977033       -2.99557131661808        0.03068568207629
25
 energy: 33.008351205645 xtb: 6.6.1 (8d0f1dd)
C            3.17605784128552        1.17232926494726        0.01554787812493
N            2.27477894909943        0.06957859879365       -0.00541862776594
C            2.60164549182363       -1.29008466161824        0.02822022780650
N            1.41372120653047       -1.99268940989960        0.02067761346460
C            0.38788123992919       -1.12934781205370        0.00437056027620
C            0.88141248049241        0.16634498624786       -0.00502192934869
C            0.07496213236453        1.31804454816126       -0.01621915155131
O            0.42549718774117        2.49797482917588       -0.05894760574899
N           -1.34334714518870        1.05820079845378        0.04955738885139
C           -2.15791939240014        2.33080315414024        0.04282245780978
C           -1.86589510385903       -0.23721157772437       -0.00085925468994
O           -3.04695303100349       -0.51609138065875       -0.04666242704867
N           -0.96053847113101       -1.35699599679107       -0.01636501416017
C           -1.39779076422213       -2.74961519991823       -0.02138842851327
H            3.66076709759872        1.27496991544918        0.99206480846845
H            3.94569685778544        1.05218320890915       -0.74984980903257
H            2.59371816139008        2.07310712589470       -0.18263973022438
H            3.58837059923116       -1.68307421538786        0.03793206074365
H           -1.89973095998872        3.54329375454286        0.49655186929700
H           -2.10943126102327        2.80125877777361       -0.91247440513810
H           -3.18277407406792        1.94485283525007        0.18981269282553
H           -1.07034372256325       -3.26994621782687        0.88826128454413
H           -0.98687303476560       -3.29279132578967       -0.88224086918061
H           -2.48189525546220       -2.79529982001730       -0.07272671165075
H            1.39119763833994       -3.00076557788203        0.03202901798849
25
 energy: 37.960174350938 xtb: 6.6.1 (8d0f1dd)
C            3.17175195335297        1.17057346591039        0.00164415726702
N            2.27052674103396        0.06455876471826       -0.01429367495076
C            2.59201218172816       -1.27746935826956        0.01669527254863
N            1.41862468064508       -1.98980058920191        0.01687150211105
C            0.38199059740764       -1.13097445933600        0.00916740497586
C            0.88029745927340        0.16425669588057        0.00047178945824
C            0.06427334142549        1.31998261563109        0.00717262079278
O            0.41191060555509        2.49674579000132       -0.06201439341142
N           -1.34645665834968        1.05072809409228        0.10411571439196
C           -2.17555252844199        2.31609681732466        0.05235005390827
C           -1.87455122664546       -0.24510298155328        0.02487334810553
O           -3.05051007536163       -0.52621216912782       -0.02469230611524
N           -0.95965398695864       -1.36044009481236       -0.00517938332649
C           -1.40095111178582       -2.75111652593087       -0.01370596983622
H            3.65746016893977        1.26916182568298        0.97662266711308
H            3.93823423362989        1.04734869370305       -0.76562040060887
H            2.59108986659104        2.07165507342332       -0.19481436705501
H            3.58187901287553       -1.66879649006720        0.01785245914845
H           -1.95869875932771        3.54740437174274        0.58840655414014
H           -1.88902069637999        2.84914243775401       -0.89404541626172
H           -3.25012566488133        1.91913988269189        0.00545667002091
H           -1.07304201976693       -3.26983538370157        0.89530796971908
H           -0.99032937891216       -3.28488353404659       -0.87755529484966
H           -2.48210410342898       -2.79493526016486       -0.06431729909953
H            1.40316003571855       -2.99819908017278        0.02626421796118
25
 energy: 36.400697983847 xtb: 6.6.1 (8d0f1dd)
C            3.17241286056214        1.17083950735841        0.00357376531267
N            2.26843559886612        0.06515603026150       -0.01396615487053
C            2.58480055928581       -1.26271195529684        0.01390673450942
N            1.42062144976697       -1.98334265384913        0.01476330736540
C            0.37724291035489       -1.12439027280884        0.01154185506992
C            0.88081310477464        0.16872817466826        0.00457813808866
C            0.05930023629253        1.32416798563122        0.01513404931804
O            0.41366816449350        2.49823356753706       -0.06670816882994
N           -1.33951918406193        1.04278338458334        0.12416890125553
C           -2.17998153147486        2.29959093221521        0.03904103954953
C           -1.87736067590192       -0.24743937001366        0.03575382084289
O           -3.05318225923314       -0.51836928026327       -0.01850870547990
N           -0.95859931447677       -1.35934860280053       -0.00101375958989
C           -1.40721546590881       -2.74730601165876       -0.01655750718261
H            3.65692877236788        1.26316570293379        0.97929832275689
H            3.93853744688490        1.04427034760049       -0.76300153868029
H            2.59448726870330        2.07311959487183       -0.19147232343804
H            3.57443426830703       -1.65802903356820        0.01168492777968
H           -1.98849657460232        3.52688804440230        0.56622760088174
H           -1.85038928040524        2.80792599944627       -0.82882565873389
H           -3.20850843372856        1.92503218891485       -0.05153902893265
H           -1.08035137966395       -3.26934927616761        0.88972804922161
H           -0.99932604214293       -3.27696855174323       -0.88363585120425
H           -2.48950515523949       -2.78257397898285       -0.06644425618285
H            1.40296732411650       -2.99104387109983        0.01930633732006
25
 energy: 37.412171798222 xtb: 6.6.1 (8d0f1dd)
C            3.17152805920254        1.17470184003010        0.00164113163899
N            2.26621815172087        0.07128654350330       -0.01654189507974
C            2.58616726546283       -1.25944035544354        0.01055855529790
N            1.42002685887998       -1.98276359744159        0.01348194780979
C            0.37684197718984       -1.12298321276339        0.01425138022591
C            0.87649454731669        0.17147902985121        0.00716973911649
C            0.05189137125005        1.32032135343566        0.02107902042756
O            0.40767623945650        2.49797003403782       -0.06711926638258
N           -1.34410821856594        1.03373437404770        0.14373594111546
C           -2.18108446991465        2.29406828115903        0.03488139051817
C           -1.88026752720720       -0.25303390082272        0.04500443496921
O           -3.05859475406744       -0.52259446913735       -0.01138452655593
N           -0.95986239690766       -1.36286748354792        0.00429490925761
C           -1.40885439385986       -2.75018555321627       -0.01500505503114
H            3.65805753964819        1.26482135158830        0.97728801177531
H            3.93714159922069        1.04595651314911       -0.76553586790852
H            2.59425335757279        2.07727703965861       -0.19262864224742
H            3.57443575353030       -1.65648739993476        0.00474983938273
H           -2.02092438191460        3.52489746427604        0.57610587211208
H           -1.77654611652140        2.82667480281866       -0.80712507458011
H           -3.19858191754646        1.92133146265205       -0.10797982800650
H           -1.08174618610308       -3.27656460024303        0.88895540601309
H           -1.00501334732175       -3.27995801551538       -0.88471339487558
H           -2.49270767402404       -2.77906471318992       -0.06277934907025
H            1.39977333143909       -2.98954818677998        0.01464921622470
25
 energy: 38.717740277160 xtb: 6.6.1 (8d0f1dd)
C            3.17325744602721        1.17813553213302        0.00011256437843
N            2.26580878312344        0.07896283301611       -0.01890781906467
C            2.59172525679788       -1.26169882829072        0.00752337697475
N            1.41814755718268       -1.98392308560201        0.01227532118198
C            0.37965071726189       -1.12082399550035        0.01555079140816
C            0.87339347211840        0.17479926625895        0.00927495440789
C            0.04835056238252        1.31688909076840        0.02680004752787
O            0.40921287964224        2.49804016213781       -0.05739190434931
N           -1.34695336432731        1.02963160610266        0.15816360951260
C           -2.17655946162189        2.29538131499238        0.02716867683452
C           -1.87766210649765       -0.25384931953929        0.04708540474393
O           -3.06043060689007       -0.52020383983646       -0.00853192857876
N           -0.96043039198789       -1.36423761260892        0.00796556982430
C           -1.41009773628565       -2.75035992343023       -0.01282124228238
H            3.66266661663545        1.26698564868997        0.97552170014031
H            3.93808063105064        1.04780372489128       -0.76831579320207
H            2.59660945842342        2.08139618275993       -0.19321732576029
H            3.57705117835546       -1.66175340027144       -0.00123235236667
H           -2.06053583582227        3.52774538041049        0.57943898668203
H           -1.72719081110900        2.82486289517550       -0.77680668241901
H           -3.20133647988368        1.91125423334411       -0.15964849294314
H           -1.08241531080855       -3.28201050086437        0.88861754139504
H           -1.01345260271722       -3.28325891965403       -0.88536783935604
H           -2.49624471016834       -2.77104705967554       -0.05652676902057
H            1.39156952705457       -2.98969278323548        0.01030350047834
25
 energy: 37.394472869040 xtb: 6.6.1 (8d0f1dd)
C            3.17424918679467        1.17940883630063        0.00051126110271
N            2.26545537587430        0.08213907048761       -0.01865749996773
C            2.59438714354862       -1.26315592316892        0.00750096770933
N            1.41767305688836       -1.98404058588746        0.01200140732797
C            0.38124254750961       -1.12029895821835        0.01427012609316
C            0.87233296599381        0.17557156248039        0.00892158752105
C            0.04548437676365        1.31620340073660        0.02756237992298
O            0.40890773688965        2.49829817078557       -0.04766912066733
N           -1.35061812930978        1.02836820772742        0.15462197068240
C           -2.18037706716378        2.29330743352357        0.02226252017513
C           -1.87614286708014       -0.25521809014462        0.04122832511773
O           -3.06056286249858       -0.52007894823640       -0.01346147663812
N           -0.96029129849886       -1.36495717756149        0.00689451176788
C           -1.41051416687186       -2.74984496666411       -0.01179719796226
H            3.66451523125921        1.26807562944295        0.97572320194545
H            3.93875752424869        1.04871304356194       -0.76845394821359
H            2.59857058269031        2.08338229274516       -0.19257971903136
H            3.57878544567544       -1.66347322425096       -0.00079602986552
H           -2.06902096565399        3.51463949850713        0.57136070516265
H           -1.72559854197954        2.82785959123027       -0.77723379975211
H           -3.18738316592411        1.91679961370361       -0.14692158266753
H           -1.08178438765902       -3.28131065395644        0.88950086705591
H           -1.01731071529638       -3.28438909471419       -0.88517023378781
H           -2.49717855582497       -2.76734336511135       -0.05275010852633
H            1.38863621756098       -2.98962676114675        0.01016478164260
25
 energy: 36.595404878903 xtb: 6.6.1 (8d0f1dd)
C            3.17441390477258        1.17817547513822       -0.00029822388805
N            2.26522672741775        0.08068037520411       -0.01858903001612
C            2.59348763546598       -1.26309387541908        0.00681994436983
N            1.41804165241959       -1.98357207107819        0.01112945844827
C            0.38102225610127       -1.12064116134645        0.01402325115126
C            0.87325040451644        0.17458773195628        0.00921442557336
C            0.04587893869461        1.31757679204336        0.03002548130359
O            0.40977632147163        2.49831122920235       -0.04371752519527
N           -1.35060176671246        1.03032826080407        0.15478021153484
C           -2.18182146649584        2.29400833677340        0.02115353043170
C           -1.87550359264139       -0.25469689537246        0.04226048020830
O           -3.05914427944205       -0.51918139435328       -0.01446751536426
N           -0.95996519503082       -1.36417738088653        0.00711153880419
C           -1.41058653321352       -2.74872973897155       -0.01147993813991
H            3.66473516280414        1.26688944966708        0.97450508155473
H            3.93836883552827        1.04782378698935       -0.76970973246733
H            2.59930041893614        2.08263921714665       -0.19291402700776
H            3.57852260221152       -1.66228146857111       -0.00119641799505
H           -2.06876871651868        3.50808450760187        0.57270618897785
H           -1.72287600367174        2.82621903449337       -0.77910125024839
H           -3.19555233647787        1.91882879863971       -0.14847003683309
H           -1.08092540136941       -3.27902152337533        0.88982793377457
H           -1.01720565709135       -3.28227559718087       -0.88495685922156
H           -2.49680050745015       -2.76794806731134       -0.05166355972080
H            1.38994126371163       -2.98950521962188        0.01004048611233
25
 energy: 34.578418393759 xtb: 6.6.1 (8d0f1dd)
C            3.17401278740944        1.17704192394990       -0.00122385506870
N            2.26394827506104        0.07975037656173       -0.01803184104662
C            2.59221688562712       -1.26305338523290        0.00599021530244
N            1.41786642861058       -1.98269895237017        0.00997259600232
C            0.38025637320670       -1.12096865606848        0.01384690160879
C            0.87360639549505        0.17343064010815        0.00928077933126
C            0.04589865813214        1.31913996740992        0.03203828097084
O            0.41114853380413        2.49839501299757       -0.03911710150493
N           -1.35168590929270        1.03314797735653        0.15140021313774
C           -2.18152409803060        2.29770350940238        0.01647341389792
C           -1.87501733917436       -0.25427625232316        0.04251557812836
O           -3.05820801406597       -0.51764214850796       -0.01636772804624
N           -0.96042755232599       -1.36290779874571        0.00769494448435
C           -1.41051485989876       -2.74748779791870       -0.01073296845934
H            3.66464553575801        1.26589828204638        0.97296816421296
H            3.93706465153419        1.04679129930584       -0.77136146047875
H            2.59974117561043        2.08231559529700       -0.19319678744198
H            3.57833619638680       -1.65973704347824       -0.00089205431850
H           -2.06710662077686        3.48866509378907        0.57661527005982
H           -1.71873698831038        2.82856020807506       -0.78125627228986
H           -3.20269651686652        1.92221746060649       -0.14601190256605
H           -1.07923923579195       -3.27637521434892        0.89042746770666
H           -1.01643983259687       -3.27979948908685       -0.88437212690830
H           -2.49624693328027       -2.76995773244153       -0.05022509065970
H            1.39131667171192       -2.98912427421165        0.01059926009275
25
 energy: 32.369359335892 xtb: 6.6.1 (8d0f1dd)
C            3.17366286005858        1.17687506050864       -0.00173565150480
N            2.26301378892286        0.07993335646058       -0.01755375198810
C            2.59135657420426       -1.26283680531774        0.00519072732539
N            1.41721840378467       -1.98207194555716        0.00937930005590
C            0.37945958135686       -1.12061667256451        0.01401545058145
C            0.87338673920773        0.17348108081344        0.00919147495528
C            0.04590832403820        1.31989229500608        0.03209955574789
O            0.41220695418033        2.49866720768395       -0.03837436751861
N           -1.35240163019592        1.03495507560971        0.14854997570269
C           -2.18049752942417        2.30093236176425        0.01198080005071
C           -1.87514780989964       -0.25375029155802        0.04221067820215
O           -3.05854986905525       -0.51614048367680       -0.01598151166898
N           -0.96130327287392       -1.36160450448878        0.00829490624142
C           -1.41054126658755       -2.74666698513432       -0.01023003788956
H            3.66464350151101        1.26584097757223        0.97218714231109
H            3.93616904488354        1.04631217331231       -0.77225352542462
H            2.59958024983560        2.08245061777353       -0.19349810051552
H            3.57811409489881       -1.65804319113132       -0.00043497975367
H           -2.07077304399444        3.46670422536343        0.58245844942398
H           -1.71029400026094        2.83256794436818       -0.78193346566989
H           -3.20420404733818        1.92554184289597       -0.14474966999869
H           -1.07870602235258       -3.27533043307195        0.89078857066901
H           -1.01564379915265       -3.27851551193413       -0.88384634765051
H           -2.49603539653730       -2.77089167737890       -0.05007916515827
H            1.39159223872640       -2.98865711514694        0.01135743962151
25
 energy: 30.851646990881 xtb: 6.6.1 (8d0f1dd)
C            3.17341063099708        1.17741155942153       -0.00159154365022
N            2.26310531102755        0.08026936869915       -0.01723849349738
C            2.59098909059441       -1.26268170170517        0.00485321698454
N            1.41658804658438       -1.98200760122537        0.00961349817197
C            0.37896288145664       -1.12011240437303        0.01441979758650
C            0.87310289087200        0.17419534797235        0.00909892161130
C            0.04640514052825        1.31968232154181        0.03040428089560
O            0.41228128359108        2.49889460376856       -0.04188634920182
N           -1.35199736209013        1.03541152700611        0.14695883213373
C           -2.17823731891097        2.30321945397672        0.01024430786054
C           -1.87587144794312       -0.25302556056145        0.04222188597083
O           -3.05955354263861       -0.51543095459054       -0.01383185057586
N           -0.96202760913966       -1.36075000931074        0.00843952352059
C           -1.41052203903050       -2.74646075593091       -0.01048573912646
H            3.66441727706727        1.26663178780734        0.97246253037955
H            3.93603843000948        1.04674472836590       -0.77194806822646
H            2.59872748402561        2.08257691696191       -0.19358953926347
H            3.57779384673242       -1.65796132688539        0.00039873056758
H           -2.07396545260338        3.45148200673039        0.58644578892849
H           -1.70758122481070        2.83660573689556       -0.78176725691554
H           -3.20153091861979        1.92766313541262       -0.14366897321305
H           -1.07925388945942       -3.27552754476467        0.89068592122437
H           -1.01444779858874       -3.27830060013531       -0.88374319278765
H           -2.49596671229561       -2.77103732046311       -0.05155347118188
H            1.39134767058074       -2.98846411244251        0.01209113795147
25
 energy: 29.900876775542 xtb: 6.6.1 (8d0f1dd)
C            3.17348401424918        1.17806550727654       -0.00133301567453
N            2.26402787682623        0.08036461769472       -0.01731498023973
C            2.59092132932016       -1.26259645340668        0.00459660948751
N            1.41615184544087       -1.98218038799546        0.01027098866655
C            0.37886895001968       -1.11947331015874        0.01474882881005
C            0.87310732021695        0.17521230204817        0.00900992730350
C            0.04720505076560        1.31941387569051        0.02847234116878
O            0.41186798590119        2.49931060098069       -0.04628277058505
N           -1.35080660909665        1.03537163790872        0.14717877134715
C           -2.17661282745969        2.30389753878485        0.01094131991115
C           -1.87656669187444       -0.25180194568655        0.04216369440751
O           -3.06028392713904       -0.51496101198780       -0.01145438000916
N           -0.96225533389750       -1.36009848448025        0.00810488783924
C           -1.41065211404738       -2.74619363941344       -0.01088226303767
H            3.66427555268431        1.26760242732298        0.97303023336642
H            3.93660112429280        1.04749578973977       -0.77125732634503
H            2.59793245440512        2.08250060829023       -0.19380164898150
H            3.57729765290868       -1.65923479252079        0.00118235498779
H           -2.07898653193521        3.44252606188013        0.59049987818608
H           -1.70662507558210        2.83883829012143       -0.78153108279316
H           -3.19707811606044        1.92755522515642       -0.14574376145936
H           -1.08046468890987       -3.27573356608676        0.89065510329605
H           -1.01375583619148       -3.27840740881485       -0.88360060248152
H           -2.49616535397622       -2.77004596978540       -0.05312188440911
H            1.39072661707556       -2.98839891038665        0.01250267338528
25
 energy: 29.406113565328 xtb: 6.6.1 (8d0f1dd)
C            3.17363676135940        1.17847143067904       -0.00112381705370
N            2.26504816724536        0.08013259409585       -0.01760853840406
C            2.59108184232758       -1.26270583723589        0.00423411438513
N            1.41604452257268       -1.98234732659480        0.01075088904402
C            0.37907732224302       -1.11912733748230        0.01497409735161
C            0.87335569639665        0.17576850438194        0.00917659256575
C            0.04793464552497        1.31934159959187        0.02791408933367
O            0.41143544952268        2.49964027668503       -0.04835323448885
N           -1.34978074716865        1.03531040374881        0.14873545827965
C           -2.17562885775231        2.30410300623443        0.01311961304082
C           -1.87692449457503       -0.25054870653930        0.04271151434090
O           -3.06038142649510       -0.51470699014596       -0.01031496607030
N           -0.96206811549766       -1.35980810944407        0.00772517322719
C           -1.41071747084893       -2.74591433272302       -0.01126608254510
H            3.66418903774253        1.26825547071802        0.97344837841821
H            3.93722834277688        1.04833010592743       -0.77071594296694
H            2.59743946520069        2.08234337051011       -0.19385003280419
H            3.57694977994826       -1.66082566890562        0.00166121066733
H           -2.08073828184271        3.43826213778717        0.59114745863346
H           -1.70984630424301        2.83927996032525       -0.78207337549344
H           -3.19428065643857        1.92734920414710       -0.14848347764981
H           -1.08118879768820       -3.27566429086507        0.89051554318514
H           -1.01355185659334       -3.27837411401558       -0.88365025507330
H           -2.49633489524497       -2.76910554889798       -0.05389679378533
H            1.39023553946403       -2.98843119981074        0.01225628000938
25
 energy: 29.081562028599 xtb: 6.6.1 (8d0f1dd)
C            3.17387170541449        1.17844970165476       -0.00123802066326
N            2.26560913535831        0.07986688390126       -0.01806693429696
C            2.59122530735585       -1.26283767632277        0.00367933724248
N            1.41607273799640       -1.98227354132709        0.01096089383027
C            0.37932573639450       -1.11888844456860        0.01505235810219
C            0.87368608782494        0.17596008419699        0.00933751292853
C            0.04843487232578        1.31984318830721        0.02854365068667
O            0.41161797411853        2.50006798913497       -0.04755712978612
N           -1.34920493868280        1.03573535805243        0.15037855747725
C           -2.17576292385237        2.30405421937686        0.01531003925132
C           -1.87674250055656       -0.24928769209499        0.04274577462403
O           -3.05986720237093       -0.51406854438044       -0.01093947991246
N           -0.96171566635893       -1.35955018527426        0.00751415738371
C           -1.41086505127569       -2.74535437156758       -0.01109797782458
H            3.66429835641866        1.26827875145280        0.97337015903410
H            3.93763838915382        1.04859591359080       -0.77075376181723
H            2.59759294247776        2.08219917059895       -0.19399938373156
H            3.57672416468737       -1.66192717545351        0.00185424298038
H           -2.08228934372871        3.43618704090225        0.59225756176717
H           -1.71229817712191        2.83775577492394       -0.78337716620903
H           -3.19289455853831        1.92582528757998       -0.15253103851653
H           -1.08136599198306       -3.27502453757142        0.89073697013263
H           -1.01410261556292       -3.27802381870024       -0.88344595374738
H           -2.49655918307227       -2.76818408304815       -0.05340106929718
H            1.38978541151433       -2.98837069119233        0.01170059650878
25
 energy: 28.916664440922 xtb: 6.6.1 (8d0f1dd)
C            3.17390019977709        1.17825500473313       -0.00142143001827
N            2.26538839675906        0.07986020076325       -0.01833162882758
C            2.59130314013991       -1.26287818821122        0.00313570486021
N            1.41616012335531       -1.98208960098537        0.01080327341552
C            0.37938476522723       -1.11894351944511        0.01516629083375
C            0.87375511594613        0.17573014083012        0.00955501996816
C            0.04842929599248        1.32017680497613        0.02977445618667
O            0.41202133070764        2.50013838830902       -0.04545700817497
N           -1.34940782111433        1.03603095769734        0.15129499140616
C           -2.17599704876036        2.30441472196163        0.01627635493247
C           -1.87644789302908       -0.24895754867166        0.04303672571060
O           -3.05947588790242       -0.51368266137914       -0.01206070290287
N           -0.96159214518534       -1.35957616479492        0.00782456555426
C           -1.41087804653688       -2.74513075732735       -0.01083286690942
H            3.66439155079334        1.26792828452633        0.97308858167371
H            3.93752838445105        1.04848772278956       -0.77109109671454
H            2.59791993024562        2.08227512858638       -0.19394969857708
H            3.57681080410392       -1.66180925888124        0.00179590524086
H           -2.08144084849971        3.43498995931732        0.59157832940039
H           -1.71398416088794        2.83684308072161       -0.78434296372399
H           -3.19320581500901        1.92582492503163       -0.15468822877303
H           -1.08092088159546       -3.27473191404931        0.89078524997640
H           -1.01454870121680       -3.27766752452847       -0.88346935937115
H           -2.49658241709370       -2.76818181484620       -0.05260670714766
H            1.38970329726852       -2.98827776495172        0.01117013812866
25
 energy: 28.897033082515 xtb: 6.6.1 (8d0f1dd)
C            3.17390622239762        1.17797392047125       -0.00163341087348
N            2.26479996385943        0.08004303364346       -0.01845154276530
C            2.59126241717681       -1.26281647266123        0.00272586584773
N            1.41619498214385       -1.98189479139020        0.01064838668588
C            0.37928218689202       -1.11902008376013        0.01524888527344
C            0.87369276952124        0.17548865148723        0.00957379835864
C            0.04827781185656        1.32043965762477        0.03048521983007
O            0.41263402878726        2.50011755043655       -0.04379110510618
N           -1.34975420368924        1.03629443072660        0.15104275729325
C           -2.17636615218845        2.30468661985312        0.01636430385994
C           -1.87609775093105       -0.24911335121400        0.04274679583652
O           -3.05924882535879       -0.51330275626634       -0.01316625797153
N           -0.96165718603548       -1.35959839280790        0.00831339897914
C           -1.41090114778155       -2.74503717384798       -0.01046283994235
H            3.66452711590263        1.26740207844891        0.97277379301301
H            3.93724333472056        1.04798610025354       -0.77151299004000
H            2.59836561085776        2.08240231553103       -0.19393224014364
H            3.57699027219144       -1.66102585080162        0.00189799409634
H           -2.08124890408228        3.43517675348559        0.59212176918212
H           -1.71396687953053        2.83604057381968       -0.78488192208125
H           -3.19348579371368        1.92544470562115       -0.15568538055786
H           -1.08052283776350       -3.27463295345217        0.89091950282661
H           -1.01488064240508       -3.27743066621847       -0.88340676361772
H           -2.49656348345771       -2.76842833241259       -0.05196280815097
H            1.38973175856647       -2.98816696439845        0.01105868631482
