25
 energy: -42.436847124074 xtb: 6.6.1 (8d0f1dd)
C            3.17837136598304        1.17117453642256        0.00076645538469
N            2.27673855236207        0.05601000549278        0.00202326436042
C            2.60764941691920       -1.27548655956342        0.01884833738619
N            1.45446052128672       -2.00665690858595        0.02309646440148
C            0.39920515031743       -1.15659122603132        0.02099743380350
C            0.88327332042628        0.15068426999491        0.01455131673490
C            0.05044795062391        1.27762946092329       -0.01811652401693
O            0.42031823764366        2.45752145186776       -0.06572699522301
N           -1.33702960642885        0.94294242608694       -0.00651363000479
C           -2.13308128440956        2.02472826223607       -0.14195553409066
C           -1.84673070238900       -0.35873846090266       -0.00816319603446
O           -3.04089210257496       -0.58779386878381       -0.03001792200274
N           -0.93207739558799       -1.42180914057057        0.01291585940293
C           -1.40238213144372       -2.78696015869438       -0.00895934893004
H            3.66784090199526        1.26824277014098        0.97301502008778
H            3.93845952673112        1.03785885051162       -0.76973815838264
H            2.59250403172561        2.06997978797479       -0.19494240857601
H            3.59710430946419       -1.68732771692808        0.02666481107599
H           -2.34258512613634        4.56166635934387        0.42852255202007
H           -1.62243573673330        2.93312530030664       -0.47025895640928
H           -3.18655333436529        1.86434175663112       -0.25387986742864
H           -1.08460457146115       -3.30526748595472        0.89776090592349
H           -1.01305289142532       -3.30937024440715       -0.88512868707614
H           -2.48796440425960       -2.78939148996666       -0.05755622796692
H            1.38701626816883       -3.01409734224729        0.02527339801727
