25
 energy: 0.000000000000 xtb: 6.6.1 (8d0f1dd)
C            3.23720163006194        1.16630919979326        0.08434469647475
N            2.29877817382611        0.07527477071623        0.03981603040599
C            2.58028210190900       -1.21425402444508        0.03006176031096
N            1.43813958087363       -1.93419271955128        0.00098261760884
C            0.39035688448383       -1.05887472636071       -0.00790371836672
C            0.93510056364412        0.21347819449412        0.01709077491437
C            0.09450143893243        1.40504303904423       -0.00410947031874
O            0.49712751527797        2.54126714362870       -0.00342325688240
N           -1.25076640035757        1.06271879480407       -0.03085478223738
C           -2.21907211982101        2.15522099834493       -0.05001256985998
C           -1.81739487048744       -0.20012725993278       -0.04692818574614
O           -2.99983886758376       -0.37846417018721       -0.07008878229737
N           -0.92618586207120       -1.30210215599479       -0.03682761578324
C           -1.46982264913417       -2.64643102187190       -0.06029820460571
H            3.71247264356769        1.21471455160235        1.06488849150277
H            4.00791497605742        1.03430808813993       -0.67357694370751
H            2.69910007168542        2.09770118228144       -0.09130154882931
H            3.56654120610678       -1.63682992603973        0.04233140067262
H           -1.67107961066214        3.09322851271934       -0.02552706933167
H           -2.82428953597071        2.09428624779827       -0.95318082946668
H           -2.87644029173232        2.07745725625962        0.81450067533302
H           -1.17061996399332       -3.19584890659852        0.83242232437030
H           -1.14560257411436       -3.17511610292205       -0.95688275822323
H           -2.55549792440841       -2.55659984320617       -0.07459039797972
H            1.38130855184625       -2.94313852034425       -0.01389874181052
25
 energy: -3.064648877043 xtb: 6.6.1 (8d0f1dd)
C            3.23347299179699        1.17497606758553        0.07586503456431
N            2.30251995289276        0.08939321339311        0.03345459315711
C            2.59875232305685       -1.23684579130641        0.03070439928446
N            1.42975649988711       -1.94894909881484        0.00517294538688
C            0.39519176271545       -1.06766581483793       -0.00697547486139
C            0.92522052850675        0.21226337318474        0.01339491937383
C            0.09914248325097        1.38693956392509       -0.00435096086268
O            0.49728445594860        2.55142833791721       -0.00699320123356
N           -1.26276346489288        1.05306130074295       -0.03131737679204
C           -2.19433164614469        2.18659079694451       -0.03682278290236
C           -1.82501179459854       -0.20767290991355       -0.05328300430031
O           -3.02071676887185       -0.39759465000490       -0.07346130940837
N           -0.93489724063562       -1.31326047872120       -0.03618889278659
C           -1.46118592215296       -2.66309702116952       -0.05315059871117
H            3.71104732906454        1.22775068344460        1.05760488688332
H            4.00141193430434        1.03855370027270       -0.68672884740064
H            2.68284352805531        2.09641332439017       -0.10482691066950
H            3.57880051284593       -1.65781603475004        0.04393613364321
H           -1.69955293095721        3.18356401897617        0.04158528018730
H           -2.75015555989291        2.19212837687005       -0.94940984181608
H           -2.93604310355673        2.03899781173669        0.74780635689195
H           -1.15554476233860       -3.20975405676029        0.84177607844110
H           -1.12429756157197       -3.19880241020324       -0.94356441206332
H           -2.54732155884502       -2.58837951139280       -0.07167430937665
H            1.36859268006963       -2.95319418933681       -0.00551880848153
25
 energy: 2.440480301318 xtb: 6.6.1 (8d0f1dd)
C            3.22343933479591        1.17997288386263        0.05810900532967
N            2.30122749661240        0.09761774140377        0.02092278580022
C            2.61301580014901       -1.26206157125102        0.03208322319779
N            1.41739873512053       -1.96305806903637        0.01244565333682
C            0.39828781513566       -1.08046331880299       -0.00390981131436
C            0.91075839690999        0.20658832881296        0.00704588903157
C            0.10415672548174        1.35898109758591       -0.00677384473772
O            0.48841335277058        2.54384764882791       -0.01746891387776
N           -1.28170923746260        1.04806312047278       -0.02707258465970
C           -2.16682593996336        2.23190204763205       -0.01559127908406
C           -1.83312259406794       -0.21314029245175       -0.05401891753718
O           -3.03491567825170       -0.42397099203381       -0.07613755361952
N           -0.94622649043551       -1.32421151144190       -0.03244120650289
C           -1.44469444167271       -2.68556172871894       -0.04033282680687
H            3.70606794782846        1.24732264351387        1.03897948931047
H            3.98999319459956        1.04505260295010       -0.70844490514091
H            2.65866049791941        2.09151845172012       -0.12879347724518
H            3.58739903018736       -1.67830373086759        0.04620250615251
H           -1.73215350792791        3.29194823935711        0.18832248132760
H           -2.61169359666433        2.37434022081682       -0.98229226270504
H           -3.04288048057646        1.96816140267524        0.63476633712635
H           -1.12989888160515       -3.22613102462129        0.85874529405480
H           -1.08767934084505       -3.23227108861463       -0.92018062627735
H           -2.53215821545876       -2.64233488456665       -0.06611771106032
H            1.35735474535709       -2.96477961505242        0.00898715204832
25
 energy: 11.329289349735 xtb: 6.6.1 (8d0f1dd)
C            3.20927472752083        1.18125292620647        0.03915158240077
N            2.29535989355413        0.09565913455777        0.00870425403350
C            2.61678744072109       -1.28091675954287        0.03245236824893
N            1.40928920421513       -1.97504810984582        0.01829592379213
C            0.39742933878551       -1.09515979207300       -0.00006456161121
C            0.89819266627961        0.19680511847215        0.00141874705703
C            0.10118898843181        1.33909634908331       -0.01023613247721
O            0.47209066677415        2.53223576552493       -0.02972871272159
N           -1.30364042311740        1.04872314025696       -0.01236461502533
C           -2.15317353980777        2.27010388483973        0.00630795507932
C           -1.84315294080722       -0.21853172417824       -0.04361840291867
O           -3.04390920039327       -0.45198577167983       -0.07258094292524
N           -0.95484968882470       -1.33368625611589       -0.02654994052475
C           -1.42622945669625       -2.70712819304162       -0.02895291588176
H            3.69592307994602        1.26450794540020        1.01812078949264
H            3.97574086620943        1.05169881313173       -0.72932706467581
H            2.63400985055166        2.08628920005431       -0.15262361260161
H            3.59080797445043       -1.69173668522650        0.04648492665066
H           -1.76090675226865        3.36382028546408        0.34044423245469
H           -2.45060684611587        2.56502862329132       -1.01593679755859
H           -3.13781376262202        1.92238120082062        0.50366790068255
H           -1.10313148108778       -3.23913591181786        0.87471981875016
H           -1.04769542627447       -3.25903958935152       -0.89939643221683
H           -2.51461150962679       -2.69891426358386       -0.06329803033762
H            1.35584099813863       -2.97729072847472        0.02194355898110
25
 energy: 16.620589755208 xtb: 6.6.1 (8d0f1dd)
C            3.19399461061629        1.17907860364140        0.02742664853065
N            2.28709836064942        0.08592016909754        0.00118926734419
C            2.61154209502130       -1.29128306489969        0.03252079849246
N            1.40553632383669       -1.98321033637193        0.02084378765730
C            0.39308476681085       -1.10818782990513        0.00275371960605
C            0.88944801219705        0.18558262423518       -0.00270432764312
C            0.09329237986314        1.32906972251740       -0.01621905598291
O            0.45397021214617        2.51883064675525       -0.04264348553881
N           -1.32303967937422        1.05468836798634        0.00908515763143
C           -2.15005730178406        2.29862499208146        0.01997763426328
C           -1.85326550265033       -0.22205950874843       -0.02449238743239
O           -3.04727812230578       -0.47541391708293       -0.06333788901421
N           -0.96036651716972       -1.34001199356922       -0.02144022132533
C           -1.40973483346636       -2.72415685639973       -0.02542805275985
H            3.68158151819449        1.27489507523764        1.00476557139947
H            3.96189755031510        1.05733603963000       -0.74063288811571
H            2.61210425846114        2.08064220788163       -0.16693916046672
H            3.58892750501739       -1.69730770006937        0.04605381794330
H           -1.79717956947508        3.40597599611074        0.42613847666761
H           -2.31946837701324        2.68735187123301       -0.99755552605367
H           -3.17078067512512        1.93181547766151        0.38592360411377
H           -1.08202394306898       -3.24934470903560        0.88150817706655
H           -1.01086600583397       -3.27379453134145       -0.88947148545995
H           -2.49774162524537       -2.74814232343130       -0.06955760177599
H            1.36153922731945       -2.98787042104249        0.02926931699984
25
 energy: 17.746198292585 xtb: 6.6.1 (8d0f1dd)
C            3.18105137390464        1.17417886645970        0.01856452249301
N            2.27872203368768        0.07099534841236       -0.00417665760882
C            2.59782192768089       -1.28868708536751        0.02944317832447
N            1.40746982902418       -1.98515211261176        0.02091914894956
C            0.38523713436586       -1.11662860640593        0.00481718308438
C            0.88621682504617        0.17593150202663       -0.00382579924331
C            0.08193615226806        1.33067309975663       -0.01622660616167
O            0.43622725969862        2.50813462134164       -0.05422265148398
N           -1.33580617361316        1.06288956551934        0.04054506253254
C           -2.16193927980602        2.30947561992757        0.02754541108874
C           -1.86360946458820       -0.22375429999949       -0.00491183173379
O           -3.04682143650555       -0.49088631969933       -0.04868390172758
N           -0.96213722027597       -1.34207563643668       -0.01645210070802
C           -1.40062592618182       -2.73238179785634       -0.02383333121017
H            3.66711581440652        1.27579726152777        0.99441803298862
H            3.94986015015683        1.05832346419027       -0.74819545642841
H            2.59746856660849        2.07512061115944       -0.17615510069017
H            3.58140642453061       -1.69135416872288        0.03972126240164
H           -1.84877945335380        3.40889875991319        0.48879073371614
H           -2.17553787441767        2.74714886516217       -0.94837385280565
H           -3.17214197942561        1.95709746011534        0.25181075238700
H           -1.07302710580346       -3.25182084867712        0.88559963229089
H           -0.98766877635022       -3.27262713582237       -0.88525773352961
H           -2.48514996940921       -2.77722008353945       -0.07655609383693
H            1.37492583628838       -2.99304834820135        0.03173009305842
25
 energy: 20.685786186465 xtb: 6.6.1 (8d0f1dd)
C            3.17383656817258        1.17225747273294        0.00273750394176
N            2.27361310791781        0.06457595709636       -0.01436130954571
C            2.58752227931939       -1.27838795725817        0.01881810267802
N            1.41102591934794       -1.98357845471826        0.01882768131131
C            0.37846847254872       -1.11949983868591        0.01020569710447
C            0.88417545612965        0.17254469588974        0.00058627929542
C            0.07213221715373        1.33239530210633        0.00349569219843
O            0.42254668579527        2.50667567684600       -0.06187806104671
N           -1.34043548605661        1.05964264172987        0.09256169175297
C           -2.17137697975508        2.30528410706379        0.03979596632968
C           -1.87337895809458       -0.22856378623008        0.02032106341269
O           -3.05137646743429       -0.50107598115597       -0.02427687886236
N           -0.96302521724531       -1.34423973471136       -0.00457020936552
C           -1.40072157221602       -2.73474747132640       -0.01522563513682
H            3.66016618434441        1.27175481170483        0.97717230666400
H            3.93966285954887        1.05435018547064       -0.76577374964504
H            2.58996125455784        2.07219713727056       -0.19113522549829
H            3.57453083459350       -1.67863181059180        0.02034308000193
H           -1.90501684494897        3.38988048819214        0.60304155313911
H           -1.94965408659137        2.81797116104549       -0.94265489279339
H           -3.25061269080761        1.93081157373025        0.06358455022044
H           -1.07300802626480       -3.25106303304573        0.89483830070188
H           -0.98257655425101       -3.26450755605998       -0.87792418996358
H           -2.48152902984311       -2.78484627480519       -0.07077673121197
H            1.38728474201531       -2.99217071011833        0.02928131046455
25
 energy: 17.030907688333 xtb: 6.6.1 (8d0f1dd)
C            3.17558686352424        1.17339272225069        0.00452900892485
N            2.27269337092100        0.06760787433074       -0.01425202643337
C            2.58333475403035       -1.26578445568992        0.01576176473706
N            1.41250297997505       -1.97786844781313        0.01712747820728
C            0.37540193581800       -1.11327687388387        0.01329471912670
C            0.88464347547957        0.17743674462054        0.00572104540665
C            0.06900412886273        1.33500289215654        0.01249728026763
O            0.42412318905046        2.51001493449456       -0.06602200513154
N           -1.33312883817199        1.05197183678310        0.10877288305147
C           -2.17009407473871        2.29304331781068        0.02858118382050
C           -1.87490042182498       -0.23006280925498        0.03016927785532
O           -3.05412188709388       -0.49341040004931       -0.01714570339600
N           -0.96246553356164       -1.34309534031006        0.00032232625908
C           -1.40799949036139       -2.73014810348687       -0.01736358763932
H            3.66089308911593        1.26603134056673        0.97991574533295
H            3.94068416715486        1.05126654801995       -0.76377887751038
H            2.59411359279395        2.07420020318504       -0.18806183009401
H            3.56965931950494       -1.66854591580674        0.01278363561079
H           -1.93130952629181        3.35791582968689        0.58725397240845
H           -1.92093492595912        2.78120313204018       -0.90207825521172
H           -3.21803204021807        1.93429095194200        0.02196074592854
H           -1.08234942096398       -3.25066251204742        0.89011939785018
H           -0.99286994753393       -3.25586818779928       -0.88334029474253
H           -2.48942882638070       -2.77023785175147       -0.07245204263040
H            1.38720873480540       -2.98538882782280        0.02271805414908
25
 energy: 16.100921080851 xtb: 6.6.1 (8d0f1dd)
C            3.17537911915133        1.17753179215885        0.00193376284565
N            2.27016799282797        0.07447841508467       -0.01768026910557
C            2.58260017758757       -1.25753352305710        0.01079125599835
N            1.41224909265503       -1.97490949246058        0.01545450973828
C            0.37363938567733       -1.10931702818867        0.01813132579871
C            0.88096003595675        0.18204773078562        0.01068058978575
C            0.06078328070504        1.33234998607816        0.02227027292265
O            0.41807636395033        2.51084053341554       -0.06841985515379
N           -1.33402294344045        1.04097830104116        0.13641356632955
C           -2.17012752088388        2.28463749362702        0.01971625451641
C           -1.87823577601482       -0.23500411271741        0.04477626159474
O           -3.05995640953815       -0.49337593814717       -0.00475914373258
N           -0.96363618104871       -1.34546288111151        0.00910768617693
C           -1.41298132479855       -2.73051153139564       -0.01561282068258
H            3.66229792567295        1.26588657445116        0.97755983132352
H            3.93965149590046        1.05127590785119       -0.76684403914630
H            2.59538428399442        2.07885188947352       -0.18989363369495
H            3.56756107271693       -1.66260798603706        0.00077981894850
H           -1.98539562173134        3.33029025275467        0.61007215983605
H           -1.82253133759457        2.79196306681684       -0.87085511363974
H           -3.19761354209830        1.93038983118241       -0.06640020796272
H           -1.08864012996116       -3.25718858677779        0.88871493408626
H           -1.00191312679271       -3.25448931916385       -0.88498739699780
H           -2.49613460481167       -2.76092904442589       -0.06958437512182
H            1.38465295985444       -2.98116372906638        0.01566852148374
25
 energy: 16.421841462259 xtb: 6.6.1 (8d0f1dd)
C            3.17716635290530        1.18094982528942       -0.00063342828714
N            2.26954400654493        0.08125344688705       -0.02095451950623
C            2.58654087022242       -1.25778523008658        0.00635061999135
N            1.41079696544524       -1.97486336784261        0.01349723245553
C            0.37575154563846       -1.10669747686294        0.02098347353730
C            0.87885196762564        0.18527101693796        0.01420515810124
C            0.05734148296798        1.32965373387082        0.03036901106308
O            0.41861159649489        2.50982564550846       -0.05809000811028
N           -1.33486399350999        1.03696231393156        0.15785427712169
C           -2.16483656525843        2.28564862191196        0.01178494010122
C           -1.87584413562950       -0.23549965567904        0.05266607708226
O           -3.06075956256436       -0.48963335302218        0.00294005667792
N           -0.96385962769771       -1.34646672759682        0.01593660254133
C           -1.41609554054490       -2.72974867858983       -0.01272394552217
H            3.66703741937220        1.26815957462053        0.97453221599573
H            3.94070376982973        1.05305929125207       -0.77045054226787
H            2.59846962825661        2.08347634724537       -0.19144477315761
H            3.56915013600278       -1.66551533388651       -0.00996039100827
H           -2.04400013261917        3.31791473672897        0.62532083387834
H           -1.74885817247017        2.79296288296651       -0.83197904840807
H           -3.20014890599802        1.91977906372417       -0.15249103079035
H           -1.09201054834816       -3.26339537389848        0.88818404847296
H           -1.01289127525257       -3.25573137397696       -0.88554954631581
H           -2.50153143821895       -2.75028231830235       -0.06257018396472
H            1.37794882474206       -2.98026900895877        0.00925676646580
25
 energy: 15.462533220599 xtb: 6.6.1 (8d0f1dd)
C            3.17805699138466        1.18332623448924       -0.00064775607065
N            2.26894378037133        0.08562112947629       -0.02127544415507
C            2.59040378003954       -1.26033972063636        0.00557199128854
N            1.41013049452032       -1.97536323429508        0.01280323703477
C            0.37800070772468       -1.10665919852586        0.02055288508623
C            0.87711551103507        0.18595150729136        0.01482965666451
C            0.05342124339516        1.32799517604034        0.03266722565818
O            0.41681981952218        2.50911899392640       -0.04561443826140
N           -1.34033846382755        1.03507909696676        0.15768111456634
C           -2.16884075233154        2.28377991524092        0.00638963395228
C           -1.87445180774973       -0.23797885953128        0.04904712804799
O           -3.06116673387942       -0.49137791169136       -0.00063003251004
N           -0.96376222534913       -1.34820314472127        0.01686872713785
C           -1.41682440681179       -2.73018050872191       -0.01058037141369
H            3.66965095500344        1.27099681349578        0.97401400154022
H            3.94135768241082        1.05549525292251       -0.77113780834942
H            2.60062857165181        2.08701621605693       -0.19093887493490
H            3.57193337305234       -1.66825418667715       -0.01263469660185
H           -2.06676692088709        3.30298614362753        0.62161383184062
H           -1.73077204873634        2.80635613662618       -0.82762129857548
H           -3.18121893861902        1.92359209738062       -0.15940499932668
H           -1.09135746994777       -3.26572065841447        0.88905853848157
H           -1.01973733804120       -3.25844655469344       -0.88536655261343
H           -2.50324037514272       -2.74516290773401       -0.05585622984352
H            1.37422923914825       -2.98059922572689        0.00764442750427
25
 energy: 15.292228434893 xtb: 6.6.1 (8d0f1dd)
C            3.17822895428574        1.18193433503209       -0.00145155634525
N            2.26902781428874        0.08392216097743       -0.02110762964408
C            2.58986031452758       -1.26101412118300        0.00531232211464
N            1.41051414909041       -1.97529481077741        0.01219343899738
C            0.37795006120747       -1.10736288886700        0.02030476379779
C            0.87809180810323        0.18474428707737        0.01530956747035
C            0.05461792257910        1.32939177999943        0.03531300500570
O            0.41833408681547        2.50947039084149       -0.04190427300645
N           -1.34031267547296        1.03759175818647        0.15575724189850
C           -2.16953244094648        2.28463557565119        0.00493654096280
C           -1.87383982780649       -0.23735005384957        0.04882303956429
O           -3.05980715915598       -0.49120044044972       -0.00345911386862
N           -0.96340912304964       -1.34741133161381        0.01689654809926
C           -1.41659815076608       -2.72927649410452       -0.00975855204008
H            3.66991469542136        1.26981121318352        0.97278387477442
H            3.94088074877744        1.05462221759522       -0.77251921437196
H            2.60112613478128        2.08598606885015       -0.19122879081624
H            3.57198934475280       -1.66782587810330       -0.01298988989912
H           -2.06728058324688        3.30210774226383        0.62592934044583
H           -1.73298961722129        2.80678996545267       -0.82888813241833
H           -3.18792179997499        1.92220037517954       -0.16257131352307
H           -1.08969137666620       -3.26338570947760        0.88993515595097
H           -1.01978689243585       -3.25694942095653       -0.88474355146153
H           -2.50257649201866       -2.74621442308424       -0.05373603555164
H            1.37542477206717       -2.98089369565193        0.00789711001169
25
 energy: 14.896181343191 xtb: 6.6.1 (8d0f1dd)
C            3.17841079933937        1.18085719184475       -0.00187037598994
N            2.26883380415179        0.08299704160071       -0.02034239045987
C            2.58972577595590       -1.26209811736268        0.00543682782915
N            1.41057218044116       -1.97521554047043        0.01136510134868
C            0.37796140838290       -1.10800115804331        0.01998352480838
C            0.87868486682493        0.18370775331038        0.01574617229594
C            0.05589456424009        1.33037381773570        0.03743163488114
O            0.42015747456898        2.50970561476232       -0.03626784867431
N           -1.34094117385366        1.03989207603201        0.15070085870706
C           -2.16947407798266        2.28573081771216        0.00210155685454
C           -1.87314624915655       -0.23714809448709        0.04701155996113
O           -3.05878624564438       -0.49091374162468       -0.00744866778581
N           -0.96339690658327       -1.34660981931212        0.01689430920390
C           -1.41625516956002       -2.72858201242811       -0.00866932863417
H            3.67061238293121        1.26901560842329        0.97181805459055
H            3.94019919692433        1.05382517741514       -0.77374158347929
H            2.60167042290047        2.08539185482303       -0.19107788953301
H            3.57250215218115       -1.66726564437291       -0.01291877555520
H           -2.06706544779855        3.29712296460210        0.62757604870221
H           -1.73990786815604        2.80988507269793       -0.82981441941098
H           -3.19080628199314        1.92254984484988       -0.16091671060332
H           -1.08710604180979       -3.26144593680743        0.89075704450874
H           -1.02019552864428       -3.25597105627322       -0.88415173137668
H           -2.50207801603619       -2.74761837278800       -0.05082757692616
H            1.37614864631251       -2.98115673966766        0.00825850088458
25
 energy: 14.400299744682 xtb: 6.6.1 (8d0f1dd)
C            3.17840060883792        1.18038548869314       -0.00250714000486
N            2.26839651070592        0.08282905131823       -0.01985774529439
C            2.58937590396810       -1.26237579688106        0.00537050072119
N            1.41041497911946       -1.97498904868128        0.01061069796597
C            0.37765350200897       -1.10820554864897        0.02001629274099
C            0.87866832761967        0.18340046454469        0.01604594245441
C            0.05634392289384        1.33077338784038        0.03863542713070
O            0.42068798075584        2.50989748408731       -0.03262596493324
N           -1.34176544974329        1.04076314397526        0.14780673094931
C           -2.16955486685269        2.28563751542939       -0.00015790153943
C           -1.87314597119991       -0.23750097997861        0.04612618174343
O           -3.05871981605905       -0.49090875284297       -0.00893927550346
N           -0.96373630563169       -1.34609530738142        0.01741965636534
C           -1.41614091862373       -2.72831712790403       -0.00758448108539
H            3.67128437950044        1.26863138446039        0.97072473407230
H            3.93941190749919        1.05310302871247       -0.77504544359348
H            2.60190353585058        2.08522332166638       -0.19131912558968
H            3.57267833844540       -1.66622989387181       -0.01336474937062
H           -2.07151163424667        3.28974330873750        0.63285092550692
H           -1.73523807191980        2.81579684648396       -0.82995887095936
H           -3.19189934000788        1.92313704939495       -0.16507834114653
H           -1.08536687857072       -3.26062698639515        0.89146996626451
H           -1.02067638517603       -3.25538233543123       -0.88359375537873
H           -2.50187820576226       -2.74855981673440       -0.04857825609387
H            1.37662861452467       -2.98110127842141        0.00856789072523
25
 energy: 14.185077910161 xtb: 6.6.1 (8d0f1dd)
C            3.17847793552892        1.18052852632020       -0.00232540288836
N            2.26844740499766        0.08307600104882       -0.01940845140000
C            2.58924189678555       -1.26227413156954        0.00579517242183
N            1.41014869738689       -1.97494708411193        0.01064648377397
C            0.37747890979846       -1.10793086027659        0.02001777829399
C            0.87855336593151        0.18381134324084        0.01575074801941
C            0.05674296489017        1.33063324889431        0.03728435118706
O            0.42079715877245        2.51009709016758       -0.03357967280991
N           -1.34147667588713        1.04048516693030        0.14575141840390
C           -2.16862851894860        2.28546707234276       -0.00063922143469
C           -1.87329751284915       -0.23751530242788        0.04544855519943
O           -3.05912637957122       -0.49045807463942       -0.00834312370927
N           -0.96402974822652       -1.34586640129354        0.01727098313429
C           -1.41612313059585       -2.72835463072086       -0.00773842857818
H            3.67151728728413        1.26884332098722        0.97091263866328
H            3.93944523515109        1.05294111490679       -0.77485730262697
H            2.60182373641178        2.08524565860930       -0.19123669702728
H            3.57258600927527       -1.66601012947643       -0.01274554168778
H           -2.07132878508180        3.28702233136904        0.63367727671881
H           -1.73720853267017        2.81639145122113       -0.83001522665713
H           -3.19056583865294        1.92371198864231       -0.16239347403369
H           -1.08546771343336       -3.26077975763664        0.89131605243241
H           -1.02037184153432       -3.25550555920370       -0.88365654307895
H           -2.50188028553345       -2.74860205999515       -0.04911825335187
H            1.37645902870694       -2.98098172115720        0.00921977718296
25
 energy: 13.980780404981 xtb: 6.6.1 (8d0f1dd)
C            3.17852208363472        1.18089645362277       -0.00211009116552
N            2.26880748926655        0.08321087081164       -0.01907154377437
C            2.58902314871255       -1.26189699535388        0.00629351867549
N            1.40993108583601       -1.97494882211580        0.01089379965179
C            0.37732770720434       -1.10752260502221        0.01996986928665
C            0.87846262820318        0.18442951777141        0.01521969589662
C            0.05688810064947        1.33032252737347        0.03523727340447
O            0.42019369220613        2.51028045196583       -0.03675694804913
N           -1.34090613360505        1.03963846836733        0.14509968291635
C           -2.16757776927093        2.28510774538309       -0.00019347671439
C           -1.87370345373782       -0.23751256734318        0.04580323058468
O           -3.05977157897108       -0.49021400929982       -0.00599777183793
N           -0.96423488833373       -1.34581989163794        0.01686733209440
C           -1.41613858305637       -2.72851533167701       -0.00848099460754
H            3.67150092932208        1.26938026251144        0.97127073671138
H            3.93973402838956        1.05314366926553       -0.77438687750887
H            2.60145948945415        2.08523953580501       -0.19128729975486
H            3.57223948880398       -1.66610630052940       -0.01193280900887
H           -2.07055019920122        3.28430414351704        0.63439264757768
H           -1.73753358502917        2.81682297525914       -0.82999683830415
H           -3.18986196431770        1.92478464847270       -0.15997927095154
H           -1.08643529317507       -3.26116973657675        0.89084856850300
H           -1.01956766887874       -3.25570181768942       -0.88399715949998
H           -2.50188169111573       -2.74830146943602       -0.05090181487850
H            1.37628760494618       -2.98082312127320        0.01023043690035
