  25
        -42.15219145
 C          3.2000871945        1.1421861341        0.2031999850
 N          2.2395838986        0.0808391698        0.0703278803
 C          2.5067789608       -1.2050686519       -0.0675535855
 N          1.3551750091       -1.9079604112       -0.1190404814
 C          0.3055606385       -1.0368189035       -0.0038368047
 C          0.8700543583        0.2450315085        0.1051768151
 C          0.1353335439        1.4879380565       -0.0327087086
 O          0.6090115668        2.5944176524       -0.1471303327
 N         -1.2515370791        1.2152266140       -0.0958937621
 C         -2.1362182459        2.0527253790       -0.4590408905
 C         -1.9116407737       -0.3647435874        0.6343908249
 O         -3.0903746766       -0.4299328756        0.3828973473
 N         -0.9896079142       -1.3293991561        0.0116615101
 C         -1.5321734732       -2.5827740637       -0.4580672137
 H          3.4266798305        1.3114478937        1.2579104415
 H          4.1187059369        0.8850790915       -0.3197774239
 H          2.7790765114        2.0613580609       -0.2044480764
 H          3.4868744552       -1.6356645262       -0.1321209486
 H         -1.8956388706        3.0661229800       -0.7574689465
 H         -3.1635328697        1.7060351524       -0.4544913986
 H         -1.5165267899       -0.0782859083        1.6246180019
 H         -1.3885192640       -3.3833838344        0.2711114136
 H         -1.0825148648       -2.8598302977       -1.4109671720
 H         -2.6031311213       -2.4289115149       -0.5964942018
 H          1.2830176682       -2.9083499792       -0.2381421999
