  72
        -99.34123462
 N         -1.6465281137        2.7058251461        2.6030397778
 C         -1.7111473290        1.9424305805        1.6150259369
 C         -2.8172847504        1.9765254824        0.5921903197
 C         -3.4556135397        0.6033589532        0.4965297379
 C         -4.3510823831        0.3221401031       -0.5340924939
 C         -4.9366611965       -0.9276110978       -0.6621576596
 O         -5.8091518406       -1.2855682846       -1.6228483631
 C         -6.2240025520       -0.3328100961       -2.5729243651
 C         -4.6163191856       -1.9506053238        0.2735148167
 O         -5.2007105527       -3.1418805714        0.0535648233
 C         -4.9199491854       -4.2154714797        0.9209120564
 C         -3.7591810911       -1.6484213097        1.3211609725
 C         -3.1964077088       -0.3873886781        1.4341763839
 C         -2.1294888924        2.3692512821       -0.7501795875
 C         -1.5766926087        1.2212220725       -1.6098586377
 C         -0.6971767620        0.2649270420       -0.8830725372
 N         -0.9597298083       -0.9594354195       -0.8783960923
 C          2.7655933345        0.3314925473       -0.3462126534
 C          2.9752504408       -0.1742446903       -1.7159699864
 C          4.2077018111        0.0579187943       -0.8296874808
 C          5.0409493400        1.2125869556       -1.0913146439
 C          6.3695893930        1.2130262312       -0.7916172111
 C          6.9931840571        0.0861637230       -0.2310127119
 O          8.2772282304        0.0001042394        0.1063573194
 C          9.1327194494        1.1071401671       -0.0823128823
 C          6.2134012367       -1.0984857766        0.0138861979
 O          6.9149632289       -2.1240346755        0.5337675986
 C          6.2503072210       -3.3363911774        0.8079711223
 C          4.8816510444       -1.1079888943       -0.2767131703
 C         -0.1853601414       -1.9473831162       -0.2141850734
 C         -3.9272133692        3.0133472595        0.9362430157
 C         -4.6253301227        2.6669911383        2.2490506159
 C         -3.4181764010        4.4513773545        0.9888447511
 H         -4.5966573890        1.0951147155       -1.2439721348
 H         -6.7226972664        0.5168889144       -2.0967353435
 H         -6.9325949831       -0.8515065701       -3.2158128186
 H         -5.3842267190        0.0253199686       -3.1766074257
 H         -5.2475233222       -4.0029774798        1.9429932029
 H         -5.4821917176       -5.0618523922        0.5312601704
 H         -3.8528316722       -4.4587890439        0.9226105027
 H         -3.5258589708       -2.3925726155        2.0655777880
 H         -2.5558810808       -0.1847766651        2.2783232592
 H         -2.8508566045        2.9075431106       -1.3656997507
 H         -1.3199367745        3.0648862712       -0.5173277728
 H         -2.3861942766        0.6467048345       -2.0570724024
 H         -0.9914177081        1.6740970142       -2.4162058185
 H         -0.9391120822        1.1973068284        1.3763695756
 H          0.1876631569        0.6928966345       -0.3890894103
 H          2.3983974283       -0.3379521314        0.4153303893
 H          2.5061706672        1.3690514829       -0.2022713720
 H          2.8426761285        0.5020093127       -2.5459071462
 H          2.7304890302       -1.2008660618       -1.9392119177
 H          4.5796747538        2.0885030390       -1.5197398846
 H          6.9516454966        2.0985686876       -0.9897208541
 H          8.8052911958        1.9675770997        0.5080524178
 H          9.1957772111        1.3873731926       -1.1372779301
 H         10.1111183372        0.7810942216        0.2646600845
 H          7.0101290153       -3.9992928408        1.2163377520
 H          5.4548290492       -3.1982892393        1.5466522404
 H          5.8342034607       -3.7784659695       -0.1023428919
 H          4.2810996427       -1.9850758907       -0.0977933897
 H          0.3081231944       -2.5649586320       -0.9664025007
 H         -0.8709735060       -2.5874429680        0.3412522570
 H          0.5673046346       -1.5382539578        0.4723570702
 H         -4.6708047076        2.9454952717        0.1334073868
 H         -3.9292449576        2.7608199696        3.0770555604
 H         -5.0177663508        1.6529044579        2.2297840864
 H         -5.4521483241        3.3524341227        2.4159697709
 H         -2.6670657732        4.5536297125        1.7659597167
 H         -2.9944197183        4.7697473181        0.0403274329
 H         -4.2465754125        5.1146251914        1.2247025596
 H         -0.8408681472        2.6244986567        3.2154701737
