  25
        -42.11850971
 C          3.1553828471        1.2733250682       -0.1347549257
 N          2.2077355410        0.1489964393       -0.0511586322
 C          2.4720028093       -1.1419473557        0.1022823246
 N          1.3180855199       -1.8493627347        0.1219742733
 C          0.2895335691       -0.9644462265        0.0045497567
 C          0.8414860310        0.3121827672       -0.1205011187
 C          0.0259905687        1.4463232980       -0.4212555412
 O          2.6641282148        2.3688142033        0.5072007848
 N         -1.2742952373        1.1713227682       -0.3124003200
 C         -3.9173886353        0.9716326348        0.1091870982
 C         -1.7921907918        0.0045932914       -0.0720887290
 O         -3.0764541660       -0.1832614827        0.1028767724
 N         -1.0429919705       -1.1684800880       -0.0115891385
 C         -1.6247694320       -2.4970261551        0.0126137378
 H          4.0807813393        0.9738661199        0.3710132568
 H          3.3598298751        1.4427633263       -1.2064031489
 H          1.8988961012        2.7448810039        0.0354030192
 H          3.4502043513       -1.5712200366        0.1988009220
 H         -3.5255905361        1.7243517810        0.7936013220
 H         -3.9855037057        1.3950902360       -0.8936451596
 H         -4.8922314530        0.6198119853        0.4393140389
 H         -1.4041141502       -2.9888543490        0.9611282596
 H         -1.2318644232       -3.0908801651       -0.8144242105
 H         -2.7024084251       -2.4067223083       -0.0939722083
 H          1.2560848741       -2.8513485882        0.2393878037
