25
 energy: -42.517623490404 xtb: 6.6.1 (8d0f1dd)
C            3.24454794088824        1.79607130049759        0.31952709716408
N            2.40449206984694       -0.10530190878468       -0.12642227157146
C            2.60725938755976       -1.41728958695835       -0.00477933615118
N            1.41563214929909       -2.12748705642204        0.00715691282511
C            0.41292711264347       -1.21764241100842       -0.05164905038255
C            1.02753010003582        0.03346503596637       -0.08904246687468
C            0.22076739361021        1.21101125201621       -0.18452826353263
O            0.58499572066104        2.35274736133754       -0.39343552522736
N           -1.16624151107589        0.95104631954976       -0.06340041302988
C           -2.03887291105923        2.11132973312635       -0.03173482541238
C           -1.77522787489281       -0.26665827153700       -0.02647040311481
O           -2.97979302581153       -0.38047418801607        0.04032068591798
N           -0.94305402213731       -1.40018703479895       -0.05215563066859
C           -1.62694057477632       -2.67488997349524       -0.03478306789598
H            3.48579246661481        1.96628594767772        1.33186512857499
H            4.00573543126929        1.81797777135299       -0.43977701231319
H            2.36255723269115        2.31025854209806        0.00301869016016
H            3.52479095153077       -1.98001825480726       -0.08737089583574
H           -1.42934259015748        3.00330596131154       -0.07509109108048
H           -2.71530717795207        2.09003650716239       -0.86414318492692
H           -2.57880688420084        2.13445829252979        0.90287858661797
H           -1.37870350382179       -3.26320507990759        0.84930105805741
H           -1.41961355328296       -3.25042205281812       -0.93892032070682
H           -2.69532013474291       -2.43946276472932       -0.00002910664768
H            1.32684407267691       -3.13242149529440       -0.02640550636996
