72
 energy: -99.358340453884 gnorm: 0.003114864830 xtb: 6.6.1 (8d0f1dd)
N           -3.37808521702161        3.21673375390670        2.98995947203054
C           -3.24473520022220        2.06639116179269        2.51208788049275
C           -3.44838868057600        1.75776956139957        1.04044374919818
C           -4.08138545732970        0.39447311411130        0.85248987919029
C           -3.95938388176893       -0.24730602639327       -0.38011210190942
C           -4.56734034696924       -1.46860200309863       -0.61894804695109
O           -4.50863714222451       -2.15615057182793       -1.77918318245803
C           -3.86749459586764       -1.57741938723100       -2.88894478218830
C           -5.32923348907300       -2.08497237368659        0.41235307404186
O           -5.87807978785531       -3.27319962590712        0.09632585328885
C           -6.68956710525429       -3.92848184609272        1.04486531374405
C           -5.45655677832575       -1.43092788268719        1.62936492964047
C           -4.84592788371237       -0.20397959406670        1.84296727725602
C           -1.99781302102364        1.78885357063024        0.66315061222508
C           -1.16055881728599        0.70683842442960        0.71249351814053
C            0.21748064218054        0.83251484635793        0.54508379715522
N            1.10566273835933       -0.16242770155153        0.58861517753058
C            2.51507594728942        0.09418007304714        0.42569463727598
C            3.00093372560376       -0.16471368382082       -1.01444824046342
C            4.49135066526536        0.01299648494316       -1.07998558808403
C            5.05150768791615        1.24773873785589       -1.36833117426145
C            6.42704628854125        1.41947307043179       -1.37782844718392
C            7.27429655714155        0.35752517343930       -1.09299481656165
O            8.61749563080614        0.40792767381469       -1.06429287303813
C            9.27009806884397        1.62462211448546       -1.34534490658647
C            6.70925515804969       -0.91612566494117       -0.80196975452567
O            7.60068438227875       -1.89323339737502       -0.54825619603885
C            7.14066736096809       -3.19725019715033       -0.28473077128620
C            5.33078256722238       -1.06165933606491       -0.79574301992453
C            0.68323493550109       -1.53543795196497        0.72173002276680
C           -4.31574607429030        2.80264662176684        0.27813374433317
C           -5.69832033416596        2.91198023826282        0.91672074488834
C           -3.68769604865151        4.19015379110854        0.17762199861235
H           -3.38483636776628        0.22699065996329       -1.15973664412663
H           -4.33180859179926       -0.62709931371545       -3.16772271239945
H           -3.98884404924187       -2.29210300031581       -3.70027839618859
H           -2.80144190072629       -1.41881967096844       -2.70142351526145
H           -7.55848183405212       -3.32119677934558        1.31772962283421
H           -7.02705309944970       -4.84227447584491        0.55921756113994
H           -6.12373733396255       -4.18450130285164        1.94726956193325
H           -6.04442191116231       -1.86465274031269        2.42153272158347
H           -4.99084495885144        0.28765774125387        2.79229086688695
H           -1.86828222279366        1.95570741885912       -2.01601407269031
H           -1.57448759847582        2.76658871809583        0.49338163182718
H           -1.58477950103418       -0.26962997520903        0.89485309541528
H           -1.91389804180204        2.02591822287114       -2.79477296999577
H           -2.88719600572262        1.19556609347445        3.08010165220310
H            0.62740386311221        1.82116989580004        0.39269042697435
H            3.07151244627015       -0.55009710429376        1.11250733124205
H            2.72651544896909        1.13178614228968        0.69061547151535
H            2.50560663755369        0.53612299722730       -1.68805605730416
H            2.73163717875356       -1.17912452473244       -1.31168735224692
H            4.41510754229228        2.08892373852667       -1.59647131824780
H            6.83283955622814        2.39006563729115       -1.61122719272438
H            8.98849109329926        2.40525045025343       -0.63235658262909
H            9.05871329118376        1.96497634640905       -2.36271053863617
H           10.33306150647659        1.41432831227276       -1.24823539546182
H            8.03556039409515       -3.80002509576001       -0.14237440336949
H            6.53374817644914       -3.23198434148697        0.62583599780522
H            6.56468516746052       -3.59668878648269       -1.12515657110253
H            4.89322369909672       -2.02373129902677       -0.57892331295791
H            0.05117389818012       -1.83326474720428       -0.11807090212328
H            0.12049665920183       -1.67716348292331        1.64654358199630
H            1.55696036707496       -2.18245707640254        0.74517745236431
H           -4.43947359296701        2.40733871749867       -0.73749088349639
H           -5.61663974066026        3.34285728164909        1.91084378131961
H           -6.17778713652082        1.93842635145230        0.98918998829448
H           -6.33060478317011        3.55810380888986        0.31380502267377
H           -3.40200194564562        4.54395138891788        1.16310430032607
H           -2.82368199013950        4.19913460177623       -0.48158436325232
H           -4.41944041459258        4.87899338523146       -0.23557740930793
H           -3.17110080215743        3.34816416135107        3.97545758774492
