25
 energy: -41.989246630400 gnorm: 0.003893429005 xtb: 6.6.1 (8d0f1dd)
C            4.42892074615902        1.32924328047104       -0.00449822613526
N            3.16488355615548        0.62035713199561       -0.07980731037078
C            3.18895345993470       -0.73031402580771        0.07678868036855
N            2.10523003362021       -1.43160456409356        0.06089336794661
C            1.12508720824213       -2.02539209610628       -0.23993613184661
C            2.03338878464869        1.25361478597674       -0.28093547636921
C            1.20929304460350        2.18411920537566       -0.45540196050985
O            0.28063336340833        2.88980674451052       -0.61091115275867
N           -2.30179917132129        2.67955147613461        0.84199197191574
C           -3.42559864225463        2.61102935764343        0.32553777365696
C           -2.42162930735290       -1.35741670520876       -0.23918412907439
O           -2.45132830441866       -0.20787949275146       -0.38641188083621
N           -2.15617588530339       -2.49900455935025       -0.03606497633424
C           -2.63020552914868       -3.83377624279883        0.00535342622030
H            4.85510048582034        1.23299418156388        0.99587231071544
H            5.13468375289409        0.91811395916472       -0.72777704203327
H            4.26940506739424        2.38277548459599       -0.22131023270716
H            4.13177969652103       -1.21553549604780        0.27090832018375
H           -1.47157733559759        2.87736289120939        0.28585609298094
H           -3.64718377971098        2.74577221158031       -0.73946342892934
H           -4.28002332285470        2.39846701870600        0.95913150349329
H           -2.37694876930622       -4.26272069884237        0.97692647657258
H           -2.13399246208535       -4.40922031005181       -0.77804297248964
H           -3.71042957980359       -3.88458462934582       -0.14059050808568
H            0.23996440385272       -2.44752036692102        0.17224712232719
