25
 energy: -42.159438218957 gnorm: 0.004498705833 xtb: 6.6.1 (8d0f1dd)
C            2.93196656917410        1.08931224936253        0.28880608630679
N            2.12193035576879       -0.07519915459106        0.05350311024678
C            2.57175618762650       -1.31034448200572       -0.09849691975815
N            1.53997061801775       -2.13786994131933       -0.30402376908934
C            0.36534636654754       -1.40884158332483       -0.25542126566239
C            0.74699055952493       -0.09038719414096       -0.00241468140033
C           -0.05499485006749        1.15699696506762       -0.12280530277191
O            0.41244283105396        2.12251541073542       -0.68512088959170
N           -1.34002409699023        1.11257684344382        0.35615326970579
C           -2.27540709996398        2.13778999356616       -0.07229023236787
C           -1.79498697672745        0.22987782345892        1.31712997621918
O           -2.93172316612028        0.18989608006879        1.67769330552600
N           -0.88093175651736       -1.89790056634069       -0.32596317798679
C           -1.29523538571389       -2.89009882513219       -0.99906396165558
H            2.77392463016946        1.45844834569897        1.30343482874775
H            3.98137893327003        0.83963360180841        0.15526416464109
H            2.64386577304040        1.87936531371716       -0.40645376549102
H            3.60274962672870       -1.60542928460344       -0.05502654624602
H           -1.75992515663379        2.83721814019196       -0.72583673249792
H           -3.10723438489383        1.66988169261345       -0.60012978635255
H           -2.67510091668921        2.66197212858249        0.79539383273176
H           -0.99651523815678       -0.38253749019738        1.75433386076139
H           -0.70423865349027       -3.44071953936378       -1.73009899041371
H           -2.32166914027342       -3.18997946070297       -0.85396073993249
H            1.60609588541522       -3.13793852499284       -0.43343405576666
