25
 energy: 43.669272424705 xtb: 6.6.1 (8d0f1dd)
C            4.35721530064510        0.95313801979083        0.15552371551881
N            2.21991299234158        0.24242296267113       -0.15449164335935
C            2.45946710347487       -1.02404056249312       -0.04296150871376
N            1.31851849240158       -1.77379192846952       -0.00112740834701
C            0.28760415429002       -0.88659170057247       -0.01610629749558
C            0.82591062740134        0.39440597143741       -0.05142237002316
C           -0.11131094970127        1.50497118654565       -0.03330486335815
O            0.13842690674551        2.68200617104282       -0.02219575807657
N           -1.46153085424949        1.03680400875571       -0.05100203498055
C           -2.49132785354895        2.05975434372072       -0.07511404302995
C           -1.96721725616715       -0.23797142373918       -0.06184357336062
O           -3.14986131210827       -0.49356840975817       -0.09165192800450
N           -1.03118062617228       -1.24736670226195       -0.01814785177529
C           -1.52246877262072       -2.61657358091506       -0.02591071099114
H            4.84963280759415        0.82948692106576        1.07150125145325
H            4.97070547336027        0.91263751579009       -0.70688929396062
H            3.68436627019373        1.72718725854199        0.19842493198812
H            3.42308411231443       -1.50004001174849       -0.01112419350239
H           -1.99223274590110        3.01487735998990       -0.07895413872958
H           -3.10915842731205        1.96742679088390       -0.96788329781398
H           -3.13987443915778        1.97719912646373        0.79736568174253
H           -1.22326918174556       -3.14484225606285        0.87513615449112
H           -1.19604885289554       -3.15427141702632       -0.91618169681934
H           -2.61366626484228       -2.56289187671985       -0.04666900842025
H            1.21423582500918       -2.78303907619659       -0.01512123282402
