25
 energy: 117.974369255724 xtb: 6.6.1 (8d0f1dd)
C            5.08550147083124        1.18376831077076        0.24578434483667
N            1.97447157791289        0.34526345105266       -0.08901814276212
C            2.32148435768707       -0.93599301878672       -0.02674027498765
N            1.22649267331184       -1.75537236093693        0.00028351867548
C            0.13673409998208       -0.94721125376940       -0.02213844423578
C            0.59118744029689        0.36689211024921       -0.06344890192699
C           -0.34349453588446        1.47401569089900       -0.04754977410161
O           -0.08162953630699        2.65959301933463       -0.02063205627155
N           -1.68514731656739        1.02236407479735       -0.07782220417185
C           -2.75211169977596        2.01407407097961       -0.09747481689651
C           -2.13643563353127       -0.27358303929873       -0.06570308632626
O           -3.31706177972757       -0.55208339394056       -0.09321395315098
N           -1.17904665224933       -1.29763092792805       -0.01764674948457
C           -1.61448272232517       -2.68237800257042       -0.04072630861212
H            5.72916652732219        1.31708307837839        1.15056364279556
H            5.82947970486684        1.18327295745219       -0.57725860812258
H            3.03620137217638        1.20118363637126        0.04812474541309
H            3.32900392145554       -1.27636044287572       -0.02103647661437
H           -2.32003417498799        3.00981605901376       -0.10252483225610
H           -3.36833967666955        1.86076683693336       -0.98321097927721
H           -3.38372250853966        1.88465328483285        0.78312742175038
H           -1.27450788670593       -3.20923052317391        0.85293216140810
H           -1.25469856236458       -3.19744830691348       -0.93593493723070
H           -2.70324851618134       -2.67586458944247       -0.05400186934399
H            1.24618931678865       -2.76696461850023       -0.00594256097560
