25
 energy: 44.172475367665 xtb: 6.6.1 (8d0f1dd)
C            4.22737336114720        1.00053829661059        0.15055305658984
N            2.26045184751578        0.22317084741625       -0.12973034010629
C            2.48003668015182       -1.05243289945479       -0.03048392092034
N            1.33133890448324       -1.79070718365730        0.00149670901234
C            0.31024753626905       -0.89321386845752       -0.01398922989029
C            0.85864306887608        0.38857723330399       -0.03678811621417
C           -0.07864224376395        1.49771045631850       -0.02962755349061
O            0.17741160332235        2.67499905289261       -0.01914968043072
N           -1.43435012824164        1.03783445726967       -0.04967546762931
C           -2.45898268631006        2.06599679448867       -0.07258059142392
C           -1.94747218859068       -0.23200695174858       -0.06128403833035
O           -3.13209370127078       -0.47926721119545       -0.08885335983437
N           -1.01370803007560       -1.24494770856336       -0.02396571761325
C           -1.51656845263163       -2.61071852101188       -0.03078763395076
H            4.73380228990601        0.89152069730104        1.06540601164289
H            4.85289293230401        0.92674561238424       -0.70800714626688
H            3.65914826468855        1.86345161876710        0.19414230400262
H            3.44080653253171       -1.53270236167274       -0.00905376355698
H           -1.95155470423629        3.01555937760453       -0.07377556484525
H           -3.07601213717846        1.97968526647046       -0.96661631965663
H           -3.10888577754858        1.98545516698482        0.79917980398184
H           -1.22469579218239       -3.15071083562253        0.86733010272934
H           -1.19740661431094       -3.15364184325515       -0.92267001303212
H           -2.60836984162722       -2.54855038913002       -0.04861647919911
H            1.22519072660069       -2.80059896023520       -0.01263804541132
