  25
        -42.06220474
 C          5.7408889501        0.7754168162        0.1033292595
 N          2.0563070365        0.2488799081       -0.0377233312
 C          2.4253096771       -1.0252069038       -0.0272367345
 N          1.3219104504       -1.8042895371       -0.0115060083
 C          0.2223487758       -0.9909649434       -0.0117448233
 C          0.6864894621        0.3136300449       -0.0294314304
 C         -0.2194277064        1.4529525364       -0.0192844391
 O          0.1167579021        2.6101217751       -0.0125338747
 N         -1.5473918595        1.0291570806       -0.0154428234
 C         -2.5768332648        2.0620690395       -0.0116658794
 C         -2.0336765164       -0.2650180444        0.0057939435
 O         -3.2052274603       -0.5135780640        0.0250008745
 N         -1.0794111338       -1.3123127376        0.0035394265
 C         -1.5467118872       -2.6847774167        0.0277314304
 H          6.2405181452        0.9975019265        1.0334716720
 H          6.2954950483        0.8540661707       -0.8212112545
 H          2.6742551169        1.0525944502       -0.0474724119
 H          3.4367535642       -1.3816248002       -0.0304301533
 H         -2.0833275187        3.0304809849       -0.0116494840
 H         -3.2065780796        1.9569985211       -0.8944318534
 H         -3.2029306181        1.9553030391        0.8732836277
 H         -1.1900892597       -3.1957920875        0.9223080765
 H         -1.2214300121       -3.2164714900       -0.8667748543
 H         -2.6358492258       -2.6555793873        0.0465099857
 H          1.3213540806       -2.8148822774        0.0012748581
