  25
        -42.08752068
 C          3.5573009120        0.6579927849       -0.0211661942
 N          2.4561622911       -0.2684187723       -0.0117684924
 C          2.5896085278       -1.5929014706       -0.0132174619
 N          1.3803941686       -2.1720031888        0.0190168421
 C          0.3946705917       -1.1753274817        0.0430296048
 C          1.1236482730        0.0464234236        0.0223322978
 C          0.5726756809        1.4065907989        0.0181891251
 O          1.3062037887        2.4033023118       -0.0621944844
 N         -0.7474793807        1.4414710570        0.1047415331
 C         -1.5185375405        2.6038267329        0.1241393168
 C         -4.1996423386        0.7684556703       -0.2832805436
 O         -4.2836652325       -0.3448126470       -0.1335817336
 N         -0.8782401988       -1.3284952398        0.0757477746
 C         -1.5984012692       -2.5386986547        0.0984266098
 H          4.0952970632        0.6140334860        0.9275784360
 H          4.2468148216        0.4156167321       -0.8298810680
 H          3.1668727455        1.6686636720       -0.1588265828
 H          3.5271305787       -2.1152513355       -0.0333330824
 H         -0.9140194453        3.5117000629       -0.0193876251
 H         -2.2842548607        2.5414558744       -0.6597880234
 H         -2.0496753026        2.6726494735        1.0812563098
 H         -1.3469565871       -3.1536641429        0.9712038025
 H         -1.4338846474       -3.1317806834       -0.8095951525
 H         -2.6593358370       -2.2901475818        0.1525140843
 H          1.2131617405       -3.1669477166        0.0146140174
