  25
        -42.16211930
 C          3.4238433860        0.3729142267        0.0143522119
 N          2.1974420842       -0.3767197284       -0.0040477685
 C          2.0717212115       -1.7036789138       -0.0126308022
 N          0.7676411374       -2.0476158925       -0.0092832981
 C          0.0201504335       -0.8995275574        0.0028369377
 C          0.9384809531        0.1620486413        0.0060916323
 C          0.4614704667        1.5238406433       -0.0026451512
 O          1.1659930994        2.5179239862       -0.0199579114
 N         -0.9238502255        1.5784429164        0.0067115572
 C         -1.5538891204        2.8793964897        0.0020286822
 C         -1.8155489694        0.4652012603        0.0160974543
 O         -3.0021854184        0.6812360236        0.0284439808
 N         -1.2836693174       -0.7826121491        0.0094727727
 C         -2.2077933592       -4.5192754665       -0.0344814048
 H          3.9202346608        0.2658883155        0.9808867142
 H          4.0972216685        0.0192891671       -0.7662553807
 H          3.1932468543        1.4262801687       -0.1469962531
 H          2.8874888135       -2.3997513514       -0.0219429633
 H         -0.7750580184        3.6415159689        0.0095748251
 H         -2.1815043331        2.9871012035       -0.8857803693
 H         -2.1985603158        2.9841431179        0.8778398138
 H         -1.7555612476       -4.8090715260        0.8926265449
 H         -1.7628140463       -4.8026278736       -0.9687799421
 H         -3.1423634461       -3.9957718194       -0.0295820112
 H          0.3878913344       -2.9833668767       -0.0164385783
