25
 energy: 91.517102608120 xtb: 6.6.1 (8d0f1dd)
C            2.93284495807033        1.24219054879621        0.11951714162030
N            2.17291824447965       -0.02091712256441        0.03581481913955
C            2.51971594247683       -1.31011982183996       -0.07394914266462
N            1.39689520599007       -2.07880520287911       -0.11862505826082
C            0.24931055782371       -1.28961257533988       -0.00760725586868
C            0.79703899343738        0.02450858403059        0.08611256293779
C           -0.04325418247411        1.11368630302240        0.38065956327500
O            0.29129156751604        2.20824618950891        0.80754583031779
N           -1.33600694589883        0.75825691641821        0.10060173668562
C           -1.85935611646309        3.08360054059555       -0.49923887048850
C           -2.46601540182473        0.38929880079645        0.18691759379640
O           -3.60954096283304        0.52504054671530        0.15836350313079
N           -0.97824900328786       -1.64612316332376        0.04251093387784
C           -1.23006703495548       -3.04251939320552        0.00563072248881
H            3.65398045416514        1.20857019449040        0.91629146004773
H            3.46067847412378        1.54037799374275       -0.79245431429042
H            2.20221325627517        2.03870222442118        0.33879536334462
H            3.48830567832467       -1.76296339269145       -0.17655228416879
H           -0.84727054087265        3.00064329584639       -0.81650037205296
H           -2.57948971127673        3.09333745719256       -1.26073602671003
H           -2.17930867296666        3.33442630983584        0.48594487489571
H           -0.72599667561852       -3.52357523341216        0.84994876913308
H           -0.81738465253457       -3.45203393734458       -0.92344462141726
H           -2.31666489867298       -3.17595073036876        0.04463376669617
H            1.35684098529019       -3.07833542031361       -0.22808990998748
