25
 energy: 139.052030465149 xtb: 6.6.1 (8d0f1dd)
C            2.69550644833659        1.24581911684807        0.18937938266538
N            2.05318423576158       -0.04090900202441        0.07055593481546
C            2.55985061504804       -1.24787886524402       -0.14439312377436
N            1.57337172242645       -2.17511804963368       -0.16352014691438
C            0.34942834025529       -1.54173424428458        0.01318670480102
C            0.69475359694525       -0.18989015941683        0.16598032268055
C           -0.31155834145281        0.74520672731946        0.42074046276514
O           -0.14542864105437        1.94786724147868        0.70286791371615
N           -1.53498276082781        0.13870867143818        0.27746527259964
C           -2.36174627991001        3.68325468076996       -0.48146256914494
C           -2.20167321042448       -0.89724918676991        0.20176229293231
O           -2.60095512847917        2.38530187231562       -0.05497723230328
N           -0.83940039920196       -2.03911815244562        0.05345251898612
C           -1.01284313457215       -3.43122630481183        0.04078284909997
H            3.64339789434656        1.17048663191502        0.70425538048411
H            2.80257328196080        1.71467540649437       -0.79216850194463
H            2.02057973867065        1.86945044943663        0.77908672302663
H            3.58047055907030       -1.47488488236739       -0.31712900552371
H           -1.65385414737930        2.37670506460742        0.08013689234536
H           -3.08348087279363        4.13276896740696       -1.09338013291476
H           -1.56871835844355        4.26748827722477       -0.00403002264634
H           -0.39481681735103       -3.84001691947900        0.84668020101012
H           -0.67124996082710       -3.80847157355988       -0.92406070069666
H           -2.07489652748137       -3.63025968048926        0.17479224350177
H            1.68772626520130       -3.15656975364395       -0.31871657066730
