25
 energy: 14.752679801259 xtb: 6.6.1 (8d0f1dd)
C            3.10082877022205        1.23055456474795        0.10464644030191
N            2.24769830404879        0.05703679601560        0.04063784820245
C            2.54618985805414       -1.31105857307058       -0.00397622536803
N            1.32766788860901       -1.99710729813323       -0.04262864973260
C            0.29201738980540       -1.12293524874026        0.00886489473572
C            0.84611388246688        0.14276500242830        0.05892877513850
C            0.04191555018427        1.28713652710514        0.10842568959684
O            0.49174702076408        2.43112750767671        0.25599064956362
N           -1.36435349553800        1.08369504723597       -0.04522125274790
C           -2.00895009139757        2.41470463444852       -0.19071774880218
C           -2.00595311187486       -0.11693340504333        0.04001065236186
O           -3.21226782448303       -0.17670790154313        0.10249087921930
N           -1.07481234934040       -1.32886179634613        0.03448320529425
C           -1.41131361310530       -2.74896855239724       -0.01667038692744
H            3.69021599953364        1.29808510663151        1.01923492530443
H            3.78074686070387        1.32252678923651       -0.74994093821061
H            2.43441701381137        2.10008012839426        0.10659786261490
H            3.51406753612574       -1.78294774633858       -0.06014954492165
H           -1.11812178306649        3.05195335996644       -0.23110763664401
H           -2.65295978893527        2.53935227761691       -1.06377614229414
H           -2.62212975715106        2.69853989646397        0.67193558934683
H           -0.97393254382395       -3.28706831942331        0.83593055647954
H           -1.00158603863673       -3.22355200880238       -0.92220710661323
H           -2.49119390764240       -2.85466920576586       -0.00859591544102
H            1.23832757776971       -3.00029373781828       -0.09992015892165
