25
 energy: 97.112757098846 xtb: 6.6.1 (8d0f1dd)
C            2.85570451010317        1.25104355657503        0.12195745921925
N            2.13453691073641       -0.02539351872139        0.03599652679437
C            2.52145190224622       -1.29148705724644       -0.10160790622689
N            1.44241296641772       -2.10513615986191       -0.15247842550149
C            0.26444636853415       -1.36119885356361       -0.01309872780431
C            0.76351139493521       -0.02634902709209        0.10993746764141
C           -0.12916699014289        0.98907385856993        0.49095109266876
O            0.10208315587168        2.05520140389962        1.03368563013405
N           -1.35334192143140        0.46493698806579        0.09793941226844
C           -1.85068356706146        3.30842981503057       -0.57415488750700
C           -2.53653161322160        0.42603038009245        0.20041871085198
O           -3.60700029690270        0.87081803854276        0.16441509511924
N           -0.94006438476451       -1.76251602794820        0.03421578281889
C           -1.15423947436443       -3.15966016959124        0.02236120505977
H            3.67462841646066        1.17330959695762        0.81582917244663
H            3.26716132413357        1.62504047481503       -0.82105431728452
H            2.12560119721408        1.99445396210811        0.46903592359217
H            3.49616007128341       -1.70000321652455       -0.25673069620099
H           -0.95675452192474        2.87083556663125       -0.92591180942943
H           -2.65647889834750        3.37356821732263       -1.24734470931026
H           -1.98097260399399        3.58790175588528        0.43625406419564
H           -0.61113815880084       -3.59050415276682        0.86580294155479
H           -0.73983502972001       -3.55161735491348       -0.90938777117582
H           -2.23703542435163       -3.32027015235466        0.07578439891715
H            1.44507987582611       -3.10055898723720       -0.27741438092316
