25
 energy: -5.150018553738 xtb: 6.6.1 (8d0f1dd)
C            3.20758970189610        1.19433097963161        0.09467566553699
N            2.29002740594242        0.09807623739308        0.03819085532782
C            2.58680241242317       -1.25498939854988        0.02630487656050
N            1.39495623753901       -1.94990519487112       -0.00648217009034
C            0.36830110893641       -1.07669885753663       -0.00163430229409
C            0.89586458888622        0.20759507813314        0.02671603627914
C            0.07655228070558        1.34478123075808        0.02090055524521
O            0.42863226405644        2.52831981388915        0.06333280833663
N           -1.32549904380025        1.01810702193200       -0.03755213115137
C           -2.18055802749451        2.19727509285684       -0.08306392047068
C           -1.89448289938342       -0.21735227812287       -0.01653277949273
O           -3.09662723939733       -0.39583530421268       -0.01243890735539
N           -0.97994344866991       -1.31382220216617       -0.01821750050568
C           -1.45714118774990       -2.67634770993850       -0.05009611290986
H            3.72267191424469        1.25065624058872        1.06059628002428
H            3.95749697397203        1.11548454973618       -0.69612461398445
H            2.62891333152992        2.10762566335271       -0.04120520607615
H            3.56210442105015       -1.68543386915462        0.01854378741074
H           -1.50813860475405        3.05317943189859       -0.05869680688666
H           -2.79364233849326        2.21184382493104       -0.98282695623703
H           -2.83982497537817        2.23390691329106        0.78414680208745
H           -1.11945672276522       -3.22616189776275        0.83250398215676
H           -1.10604552389515       -3.19145607598916       -0.94934818778392
H           -2.54428733771376       -2.63294133246264       -0.05938485201600
H            1.33071963592372       -2.95381269583167       -0.02944773190599
