25
 energy: 99.144196825426 xtb: 6.6.1 (8d0f1dd)
C            2.68811715859668        1.24153334615767        0.14769839520827
N            2.07435431620740       -0.05197594266749        0.07778304410452
C            2.68963196690890       -1.24240006294427       -0.06443421301415
N            1.74286864451003       -2.23046797985517       -0.08032647669672
C            0.50148174414873       -1.64341358508926        0.05100681498431
C            0.71220268130200       -0.27555392268698        0.15393781323023
C           -0.42822938011745        0.60683834293850        0.24164829248923
O           -0.27884607296038        1.86408816373904        0.30109121061644
N           -1.61953634925131       -0.00801736464951        0.24181214025179
C           -2.50312008600436        4.03748343838703       -0.48394721154028
C           -1.86744854621225       -1.29446327672755        0.19437630001290
O           -2.53625466784467        2.87598606547508        0.08407035190838
N           -0.72255099011988       -2.17434873122871        0.08510846545506
C           -0.91250299698551       -3.60325282766509        0.00076413144546
H            3.40582331016412        1.28303853358721        0.96856474501112
H            3.16690506202468        1.49499897360488       -0.80082948181045
H            1.90069132153298        1.97048279129529        0.33117149480737
H            3.73709553243268       -1.40614044802715       -0.17488657266391
H           -1.53096763805331        2.50267453674550        0.26028857980722
H           -3.43185151161551        4.54345167003323       -0.64064671337819
H           -1.57886642209370        4.47763208868674       -0.82691914953836
H           -0.38232740959322       -4.10899689541604        0.81291029905621
H           -0.56122448274271       -3.99291521022402       -0.95766082811077
H           -1.97698304823131       -3.79858321900483        0.10267937215933
H            1.93731709569916       -3.21150015598785       -0.18116923801710
