25
 energy: 107.536442192291 xtb: 6.6.1 (8d0f1dd)
C            2.66971572724587        1.24609671902202        0.17775466862757
N            2.07887137696005       -0.06024633991117        0.07401322725095
C            2.63603428624272       -1.25983227240468       -0.10813164156289
N            1.66827940278898       -2.21943522495462       -0.12344576361802
C            0.44914065015468       -1.60940182974111        0.04267614996968
C            0.72374874530443       -0.25383165251923        0.15851516749675
C           -0.38246977579685        0.64543717490144        0.29037934897460
O           -0.24641087543066        1.87988604683528        0.43500526901903
N           -1.58019629459401        0.04360368288258        0.27961551011183
C           -2.49109655796848        3.91664456572716       -0.42065274029579
C           -1.96229714188618       -1.17842839768945        0.22557608461227
O           -2.62984644568339        2.68143674581946        0.04053185970500
N           -0.78145109418481       -2.10805296088897        0.09375982265360
C           -0.94299971280993       -3.52521153692354        0.04720826929825
H            3.53496885660618        1.23442795355880        0.83970917839244
H            2.90561048499674        1.63539041395683       -0.81437233316617
H            1.92071152844898        1.91990662092887        0.59354717200920
H            3.66331861864033       -1.43727331970920       -0.29262841120280
H           -1.71781230826368        2.50750676214407        0.32322215987851
H           -3.32772961969827        4.31080250532063       -0.91586712423770
H           -1.58571868846793        4.52870189422812       -0.33150030266927
H           -0.33329328802958       -3.97290456119282        0.83445519146287
H           -0.63048709691339       -3.89691216315980       -0.93059325354552
H           -1.98727172863315       -3.77634392804326        0.22514022552494
H            1.82177143657257       -3.20066832202622       -0.25462680259963
