25
 energy: 100.777583558388 xtb: 6.6.1 (8d0f1dd)
C            2.67588163366268        1.24206008145910        0.15433965306068
N            2.07612757637978       -0.05972442438702        0.07197023999120
C            2.67538148667264       -1.25228071667370       -0.07676856290814
N            1.72487191500215       -2.23294242067206       -0.08949545587560
C            0.48778804309382       -1.64121297589619        0.04393286449733
C            0.71439948580999       -0.27252755702079        0.13861476403086
C           -0.41902265945275        0.61340365359434        0.23213441046424
O           -0.29859309963413        1.86044139092884        0.30957033558316
N           -1.61494330186072        0.00138727389845        0.25420376954201
C           -2.50584324106356        4.04729000803393       -0.45623268138468
C           -1.90573266459687       -1.26376167018377        0.20763152878236
O           -2.59535097941566        2.85195597598909        0.06342586429740
N           -0.73040892025524       -2.16695487561028        0.08963115269055
C           -0.91128290085218       -3.58898523132047        0.02870718233209
H            3.44664450189895        1.26388873103476        0.92754266063631
H            3.08379527113037        1.54288703499756       -0.81461863587190
H            1.89551192903018        1.95459038123982        0.41579506623873
H            3.71682435170887       -1.42362531679479       -0.21269435107697
H           -1.64177814783847        2.54130351855641        0.30015144815729
H           -3.42000545948546        4.49787979200684       -0.73431139134111
H           -1.56284921478909        4.54067814583362       -0.67421791938146
H           -0.33916155590508       -4.07207475496201        0.82556643163265
H           -0.58717349078830       -3.97056811180041       -0.94204130459414
H           -1.96699838039800       -3.80540987496810        0.18091629426300
H            1.90225443065627       -3.21433329510382       -0.20608473013970
