25
 energy: 98.084706639152 xtb: 6.6.1 (8d0f1dd)
C            2.68961069844913        1.24803465623937        0.13740588825792
N            2.06635650916238       -0.04065691123584        0.07006726592381
C            2.69370021718708       -1.22777133489447       -0.06047079165783
N            1.75461376570266       -2.22420705078644       -0.07967171171068
C            0.51628631465820       -1.64513055261713        0.04985063743326
C            0.70513404963666       -0.27267448523566        0.13824489480971
C           -0.45628812480604        0.58160751345181        0.25692317174178
O           -0.36642063015420        1.83920626820441        0.33633209847909
N           -1.63196630727281       -0.05511284190370        0.24720892897865
C           -2.52322533709365        4.07315258413264       -0.50202461211800
C           -1.83941429675401       -1.34725584447859        0.18778681396094
O           -2.59542780701778        2.95877814064301        0.14841744282961
N           -0.69975537444648       -2.19476907032673        0.08125192921236
C           -0.90530937609923       -3.62213786924644       -0.01371966944492
H            3.38291525173321        1.29764167599006        0.97968879071761
H            3.23370073959548        1.45709190319801       -0.78481734316418
H            1.90169266768346        1.98940781023190        0.26485371577017
H            3.74781666487385       -1.37787221076449       -0.13693589155934
H           -1.62445443141419        2.48160193392540        0.28950478099802
H           -3.44276075706508        4.60971340504016       -0.65558780402498
H           -1.58555624947769        4.46635361876222       -0.83214548233010
H           -0.41801976418131       -4.15338536681693        0.80852223653000
H           -0.53473011085191       -4.01889275884437       -0.96395596978053
H           -1.97908852571472       -3.79005920729288        0.04381798137563
H            1.96319949034841       -3.20426130848981       -0.16721507417895
