25
 energy: 44.003249961332 xtb: 6.6.1 (8d0f1dd)
C            3.02249172391837        1.23489502790611        0.11048211369253
N            2.21199384748214        0.01948895881060        0.03268535347163
C            2.52207731614860       -1.33931980513777       -0.03367202996866
N            1.31047435616184       -2.03663470832138       -0.07543027758391
C            0.25064309143617       -1.17657175830768        0.00149929423105
C            0.81914307717971        0.09035555897919        0.07528841733231
C            0.03278071533638        1.22938251536906        0.22192467505828
O            0.47494613025582        2.35263994358052        0.53202894886820
N           -1.36401659413993        1.10411643897477       -0.00972796106472
C           -1.86495330073023        2.54592687466889       -0.27658851970911
C           -2.13855206888379        0.03669230114382        0.07486197683639
O           -3.32910088678342        0.03255569283534        0.10306343420437
N           -1.09682430466549       -1.40076226553198        0.05908667472845
C           -1.36334013041646       -2.82944873298823       -0.00017109799539
H            3.66489030994729        1.25546450838295        0.97769737397119
H            3.63484567036028        1.43827235001809       -0.77496775965430
H            2.31564344302436        2.07179512508279        0.21706883885150
H            3.47758476086028       -1.82519784031500       -0.13526954003861
H           -0.90764676153037        3.06273026119692       -0.44853131721954
H           -2.54061841802235        2.70535270043031       -1.11358077201740
H           -2.38345269868043        2.98815142866488        0.59006238490319
H           -0.87367615928536       -3.35012436085466        0.83983617860366
H           -0.92983247852980       -3.27760494123892       -0.91108585764161
H           -2.43436062900327       -3.00352118530351        0.02125303843368
H            1.24348941230159       -3.04193500159786       -0.15242634895024
