25
 energy: 103.882279658601 xtb: 6.6.1 (8d0f1dd)
C            2.66842583522362        1.24173443011046        0.16676959924323
N            2.07997400405363       -0.06537324046212        0.07932439441902
C            2.66089061083503       -1.25868475306052       -0.09041562040836
N            1.70520494747076       -2.23256245600660       -0.10626845041383
C            0.47636515742506       -1.63653493364409        0.04630459658154
C            0.72443759239947       -0.27440408404364        0.14513041382763
C           -0.39360722088190        0.61302930118648        0.25351358013002
O           -0.27979866546441        1.85604387035693        0.33301469367663
N           -1.59075568362108        0.00822537533120        0.27078943097294
C           -2.49324390226187        4.00025943510511       -0.47664658906980
C           -1.93301580862801       -1.23090054742476        0.22345907709470
O           -2.62317925301610        2.78796364203558        0.03169051757073
N           -0.74517495106478       -2.14889459705533        0.09695538967366
C           -0.92008359443097       -3.56680901623827        0.04474286855850
H            3.48828786362493        1.24901717081106        0.88739514972685
H            2.99945977829519        1.58600516009375       -0.81755143433132
H            1.90033455724404        1.93764183362398        0.50177103355947
H            3.69483010716763       -1.43268377880544       -0.25065590655471
H           -1.69909915900469        2.53760830091694        0.29719479392965
H           -3.38712200419885        4.41944808626128       -0.83611342895181
H           -1.55968288261124        4.56376644250985       -0.51161044838170
H           -0.32255692078187       -4.02972556149751        0.83207801072294
H           -0.61122247583307       -3.93972776998419       -0.93358577490273
H           -1.96479735901126       -3.81124551582771        0.23099679923449
H            1.86677921729487       -3.21405845465479       -0.22867422544834
