25
 energy: 64.755048870919 xtb: 6.6.1 (8d0f1dd)
C            2.96975349460229        1.23833733187743        0.11499833745363
N            2.16766271813609        0.00651881430491        0.04081860748438
C            2.50735243211017       -1.30637712562257       -0.06041160479128
N            1.35284218628055       -2.05201411291265       -0.11407320319428
C            0.23149595057861       -1.23337126327761        0.00028427545776
C            0.77244428527864        0.06918818923589        0.08543836975663
C           -0.02389103494675        1.21162497135620        0.28557397526598
O            0.42283299968191        2.29949695398464        0.66674791302828
N           -1.40268620617044        1.14686478370373       -0.03992882923416
C           -1.82128243266015        2.64783436630568       -0.34689300158648
C           -2.33421287821589        0.25010685188596        0.18006224589738
O           -3.51002552781289        0.37228101641653        0.09685053613534
N           -1.02088999386493       -1.55917995015911        0.07293303307939
C           -1.28650610091685       -2.96125584683990        0.00094463388480
H            3.65007102289169        1.22800009070678        0.95058000374078
H            3.54643572568766        1.48455096267204       -0.78352505212259
H            2.25523506099121        2.06106312753807        0.27927459659680
H            3.47453512886938       -1.77325063667100       -0.14147277036230
H           -0.85893183503620        3.07867842871440       -0.62368916727016
H           -2.52204264586369        2.80808671710991       -1.15667186481849
H           -2.27212018527858        3.13001081233714        0.53519041765202
H           -0.80004150852003       -3.46508745639890        0.84327640460698
H           -0.86782301323453       -3.38222585940358       -0.92214348213458
H           -2.36946484715606       -3.09661186539233        0.02978274837123
H            1.29585474131887       -3.05589981705178       -0.19699010919999
