25
 energy: -1.308310182699 xtb: 6.6.1 (8d0f1dd)
C            3.17787137097006        1.21062852792762        0.10118662717378
N            2.28080271863683        0.08908654317021        0.04187913338951
C            2.57775075909963       -1.27134105908324        0.01808798860179
N            1.37881516727195       -1.96641493952941       -0.01595434578886
C            0.34927169264371       -1.09719899804738        0.00395334733053
C            0.88156192819575        0.18122416491648        0.03931018027858
C            0.06934595418585        1.31306810981807        0.04998335527275
O            0.48028455757713        2.47981711571821        0.12907996168708
N           -1.34899544734259        1.02993822183772       -0.04052534423884
C           -2.12751829272724        2.26512267376658       -0.11528551629326
C           -1.92346467811443       -0.21211370226863        0.00917610071778
O           -3.12323943730926       -0.38040111937524        0.04598764210875
N           -1.00543991910081       -1.32314411371498        0.00038248804130
C           -1.43956010732193       -2.70395343526057       -0.03913617579725
H            3.73042692653659        1.27523192405476        1.04767299277722
H            3.90238355297138        1.18790388379573       -0.71737635164027
H            2.56356361284957        2.10852341351631        0.00934947947648
H            3.55016142378576       -1.71766996356449       -0.00412713392604
H           -1.36227561081685        3.04013420768078       -0.09372576109829
H           -2.74728207010181        2.32954419433325       -1.00953316066613
H           -2.78405876822961        2.39350041539131        0.74892326123464
H           -1.06994066242517       -3.25144315902041        0.83346598964361
H           -1.06901472929922       -3.20493311272024       -0.94090637026642
H           -2.52678078222905       -2.70681232389767       -0.04327355030827
H            1.30024759244685       -2.96928655524609       -0.04817976206275
