25
 energy: 5.326709862822 xtb: 6.6.1 (8d0f1dd)
C            3.14060509979477        1.22329566367598        0.10529429246286
N            2.26351984458650        0.07640248751683        0.04348919048543
C            2.56023195260033       -1.28932057607564        0.00839824605059
N            1.34980359674137       -1.97802309552861       -0.02750701975940
C            0.31786419018832       -1.10667303717980        0.00958271785916
C            0.86173297950152        0.16520927807775        0.05194664381283
C            0.05442590124356        1.30222015588399        0.07749615156897
O            0.48773655013873        2.45817698092210        0.17769808914369
N           -1.35821617972554        1.05932789840877       -0.04152551263907
C           -2.07349952376070        2.34508333813992       -0.14631287243985
C           -1.96216958702184       -0.16751893214309        0.03098209094607
O           -3.16492360995335       -0.28216425647842        0.10095427257194
N           -1.04392375163669       -1.32179541831406        0.01843668017417
C           -1.42652870389080       -2.72405526685911       -0.02773997483252
H            3.71248411626720        1.29352200141503        1.03715257715465
H            3.84406467092651        1.25731760393007       -0.73321129232548
H            2.49861996548808        2.10741356970477        0.05808110502682
H            3.53042587488281       -1.74975014688997       -0.03119491413113
H           -1.23255358801329        3.04145902117822       -0.13954095222525
H           -2.69897899515961        2.44235091895535       -1.03527355166983
H           -2.71905349292696        2.55004021590585        0.71278304180623
H           -1.02231441653880       -3.26875356343243        0.83399440300486
H           -1.03527302578707       -3.21192978884534       -0.93149830836817
H           -2.51097179600758       -2.77991636125328       -0.02620515764073
H            1.26342953284160       -2.98060899204122       -0.07211670763981
