25
 energy: 149.345499791221 xtb: 6.6.1 (8d0f1dd)
C            2.71787867067146        1.24736535898198        0.16864163281361
N            2.04956083450422       -0.03227378403911        0.05105362318033
C            2.52806850583813       -1.24629656666484       -0.14496321385109
N            1.52266062596033       -2.15114549749605       -0.17073814896940
C            0.30915926928517       -1.48903398807256       -0.00299383419350
C            0.68859992194566       -0.14645050663828        0.13767838028416
C           -0.28911235732700        0.82971662841545        0.46888741599474
O           -0.05391241788694        1.94780722130351        0.89952423519649
N           -1.51861929524508        0.24473956778024        0.24454760246540
C           -2.22712148344127        3.34479630027109       -0.37901342347327
C           -2.21159164260810       -0.76056311846589        0.16790655277197
O           -2.84365828921743        2.18703422581585        0.18200172822637
N           -0.89818836015331       -1.96873836074658        0.04319962679396
C           -1.05988697420283       -3.37225949642903        0.04214937524782
H            3.66061158471526        1.15944670209357        0.69079042617109
H            2.89757117829243        1.70691151282937       -0.80802636657227
H            2.02428580983184        1.89095630896785        0.72405031568260
H            3.54326609385567       -1.52087031042168       -0.30913885898195
H           -1.41186153433488        2.82017132834483       -0.68758098734424
H           -2.85548924363093        3.82393274719955       -1.11132136954613
H           -1.74077370403744        4.08080045713761        0.28836292833188
H           -0.43405807484262       -3.76939448077226        0.85238225647063
H           -0.69065677199339       -3.75048037940199       -0.91487239661283
H           -2.11971391123784       -3.58304979335601        0.16168405266186
H            1.63209593800560       -3.13838739081864       -0.31398164141901
