25
 energy: -42.435926088092 xtb: 6.6.1 (8d0f1dd)
C            3.26731024767850        1.09528996561019        0.00929737014471
N            2.32258730308197        0.02064619847214       -0.00171720778843
C            2.61254485971932       -1.29799014722293        0.00469469901829
N            1.46604410877323       -2.02231068187059        0.01368868728848
C            0.42553392579402       -1.15328916041515        0.01326836121720
C            0.93660395941579        0.14144300474520        0.00381230670456
C            0.11860423430317        1.28772564190908       -0.03208809008701
O            0.52025243770268        2.45301563108962       -0.10109397571773
N           -1.26594218642030        0.99141357093286        0.03415787028498
C           -2.10638742132751        2.07004059345689       -0.04165789684734
C           -1.79795379930857       -0.30476919595310        0.03078910365670
O           -2.99225954564559       -0.52565126429322        0.02646726492826
N           -0.90237815709168       -1.39309622302064        0.01331255480058
C           -1.39039653355331       -2.74976633357249       -0.02223917021436
H            3.70517246426318        1.19606460268294        1.00460457114127
H            4.06927187537500        0.92349209181458       -0.71050057380873
H            2.73534150492532        2.01375132162268       -0.23329946515302
H            3.59447242609818       -1.71290743216213       -0.00281019207850
H           -3.37835805163215        4.35482098222959        0.34791969417233
H           -1.64458666049605        2.97751603582577       -0.45133825086211
H           -3.13808673586349        1.80477704199646       -0.23855063546203
H           -1.08852261628594       -3.28040789960154        0.88375484096029
H           -0.99207269739663       -3.26769827649179       -0.89768822548858
H           -2.47591674192106       -2.72019459641404       -0.08475451718410
H            1.40629801512863       -3.02894037454948        0.01823274171208
