  25
        -42.19607827
 C          2.9331382725        1.3037615594       -0.0004980566
 N          2.1109550889        0.2557525245       -0.0014596235
 C          2.4707384013       -1.0629129328       -0.0064422858
 N          1.3430029260       -1.8430001950       -0.0051495736
 C          0.2661128900       -1.0411164933        0.0001564986
 C          0.7122651440        0.2959603383        0.0013593418
 C         -0.2163988055        1.3114175999        0.0049677017
 O          2.4060997495        2.5429040961       -0.0037479805
 N         -1.5384925703        0.9606124047        0.0080896817
 C         -2.5285262813        2.0217265629       -0.0071005273
 C         -2.0187445405       -0.3450453615        0.0036939698
 O         -3.1905496360       -0.6064722259        0.0029926485
 N         -1.0513822357       -1.3626977886        0.0035242312
 C         -1.4779698490       -2.7461247737        0.0019975795
 H          3.9957271375        1.1279169880       -0.0044526208
 H          3.0732438861        3.2331949493        0.0058135261
 H          0.0209533212        2.3596411550        0.0055582576
 H          3.4744615230       -1.4220712635       -0.0067276438
 H         -2.3159828217        2.7421089925        0.7819050030
 H         -2.5237826838        2.5299111352       -0.9732211040
 H         -3.5108095926        1.5807505768        0.1558253904
 H         -1.1094810610       -3.2576015941        0.8919526634
 H         -1.1210696863       -3.2531692427       -0.8955489401
 H         -2.5667951587       -2.7570325691        0.0085465573
 H          1.3521948095       -2.8508510864       -0.0049759203
