  72
        -99.34514421
 N         -2.3235460223        1.9303082692        2.6634460535
 C         -2.3127813943        2.3733844958        1.4915981930
 C         -3.4068117160        2.1028930576        0.4942512859
 C         -3.9554121532        0.6843750009        0.5185879101
 C         -4.9417402415        0.3442227713       -0.4121021950
 C         -5.4760712023       -0.9321535052       -0.4755276778
 O         -6.4208187811       -1.3380082804       -1.3504881807
 C         -6.9787671092       -0.4048586528       -2.2448929979
 C         -5.0149721553       -1.9281982390        0.4284349380
 O         -5.5802196683       -3.1438922254        0.2958482682
 C         -5.1969035956       -4.1752809687        1.1752168948
 C         -4.0406461999       -1.5811209704        1.3524572281
 C         -3.5179628788       -0.2971338948        1.3938662471
 C         -2.8797387192        2.4218002348       -0.9280687816
 C         -2.1214709342        1.2626012600       -1.5834914606
 C         -0.9714425722        0.7694956442       -0.7589044731
 N         -0.5990027713       -0.4096145945       -0.5486638824
 C          3.7365455063        0.0400999963       -1.2129742739
 C          4.3824940026       -0.3997813582       -2.4605729819
 C          5.2715098632       -0.1211446862       -1.2291280361
 C          6.0797402978        1.0792671473       -1.2450012853
 C          7.3095998541        1.1187339787       -0.6590747748
 C          7.8458728154       -0.0050179014       -0.0098969472
 O          9.0352731363       -0.0609948087        0.5863076101
 C          9.8654478546        1.0807269685        0.6153281896
 C          7.0765483460       -1.2194823688        0.0390752946
 O          7.6838793415       -2.2329398719        0.6870016386
 C          7.0246258763       -3.4758066643        0.7751126204
 C          5.8425712735       -1.2676823797       -0.5400904007
 C         -1.2453623357       -1.5742610069       -1.0703406583
 C         -4.5792237411        3.0804476301        0.8617790924
 C         -5.2723423460        2.6474423116        2.1494846261
 C         -4.1193421735        4.5326608125        0.9809259689
 H         -5.3010460915        1.0912344992       -1.1004713891
 H         -7.4560410021        0.4242932386       -1.7137982778
 H         -7.7320163765       -0.9533540212       -2.8070416470
 H         -6.2273803888       -0.0124338367       -2.9381040462
 H         -5.4197647508       -3.9181619507        2.2148963109
 H         -5.7857885571       -5.0423535643        0.8828754727
 H         -4.1323132364       -4.4094448726        1.0776579936
 H         -3.6743642269       -2.3111011990        2.0554654477
 H         -2.7711163489       -0.0652118374        2.1334657061
 H         -3.7146768073        2.6891259943       -1.5775812070
 H         -2.2213617407        3.2910424456       -0.8802792799
 H         -2.7999531603        0.4375088812       -1.8026028635
 H         -1.7094828254        1.6141016543       -2.5354550076
 H         -1.5404647816        3.0634197961        1.1268420651
 H         -0.3527694193        1.5381874200       -0.3048427953
 H          3.1814249021       -0.6750603794       -0.6263132642
 H          3.3628686790        1.0501251266       -1.1462802194
 H          4.4713050451        0.2947258564       -3.2810459188
 H          4.2969512155       -1.4321870476       -2.7603285911
 H          5.6866468230        1.9525864250       -1.7407494292
 H          7.8818950482        2.0316640709       -0.6984712031
 H          9.3783098112        1.9140969641        1.1301546261
 H         10.1549493926        1.3896048649       -0.3933076816
 H         10.7530798313        0.7819282317        1.1702821573
 H          7.7042273676       -4.1287114867        1.3186881580
 H          6.0838739747       -3.3905287312        1.3272273553
 H          6.8324690842       -3.8960525940       -0.2166785760
 H          5.2493914450       -2.1666031411       -0.5094822672
 H         -1.0039585794       -1.6957054693       -2.1288499335
 H         -2.3331825082       -1.5434256543       -0.9620425721
 H         -0.8575499722       -2.4356165731       -0.5268613708
 H         -5.3062955331        3.0244583079        0.0452126982
 H         -4.5528061824        2.5684782241        2.9606702253
 H         -5.7533333584        1.6804913165        2.0290743514
 H         -6.0288270367        3.3779147298        2.4242293901
 H         -3.4604473077        4.6632574594        1.8358023269
 H         -3.6059807828        4.8697067075        0.0841647794
 H         -4.9862564679        5.1727350998        1.1276222770
 H         -1.5712104421        2.2201090140        3.2806125488
