  72
        -99.26895266
 N         -1.7520645160        2.6778735541        2.5095259082
 C         -1.7394176048        2.0958240154        1.4047967429
 C         -2.9084130126        2.0153714334        0.4629474154
 C         -3.4355219045        0.5884095462        0.4271948058
 C         -4.4077570543        0.2360227020       -0.5111903294
 C         -4.9298496836       -1.0450475625       -0.5671417018
 O         -5.8791277993       -1.4620198812       -1.4303968461
 C         -6.4879400386       -0.5261490189       -2.2886598440
 C         -4.4566010242       -2.0338226842        0.3372486644
 O         -5.0095243826       -3.2559795081        0.2004738947
 C         -4.6478353442       -4.2768779537        1.1005849326
 C         -3.4937487870       -1.6773723362        1.2673916307
 C         -2.9934194296       -0.3813960632        1.3131634418
 C         -2.3614006112        2.4087552846       -0.9343661071
 C         -1.4835306387        1.3337572967       -1.6016489528
 C         -0.1429259045        1.2022773049       -0.9886252359
 N          0.4676179563        0.0555373846       -0.7012653955
 C          1.8538286307        0.0471417908       -0.3002132859
 C          2.7863171378       -0.3694048330       -1.4551088096
 C          4.2191024041       -0.2562274067       -1.0169005770
 C          4.9004296700        0.9462996563       -1.1570468172
 C          6.2085441030        1.0727994413       -0.7315521354
 C          6.8620298762       -0.0086110334       -0.1453855342
 O          8.1372504423       -0.0014512429        0.3167257393
 C          9.0054732048        0.9500202166        0.1140718490
 C          6.1729208969       -1.2414848990        0.0170737494
 O          6.8845188865       -2.2285837283        0.5890049966
 C          6.2984153234       -3.5000570482        0.7576016671
 C          4.8608133243       -1.3402087601       -0.4234730211
 C         -0.1951130204       -1.2197842490       -0.8316795509
 C         -4.0804553341        2.9625228527        0.8581717376
 C         -4.7211098713        2.5394397814        2.1778224952
 C         -3.6661482664        4.4294861973        0.9321686103
 H         -4.7723346830        0.9807171763       -1.1988122651
 H         -6.9601896160        0.2850505016       -1.7263508603
 H         -7.2517293315       -1.0808083878       -2.8300310960
 H         -5.7714644906       -0.1087880527       -3.0037258072
 H         -4.8755911898       -4.0002127180        2.1341788459
 H         -5.2468235468       -5.1403805876        0.8180591012
 H         -3.5859500051       -4.5296506623        1.0150831868
 H         -3.1308913982       -2.4008072361        1.9795021926
 H         -2.2685202770       -0.1346598817        2.0735009148
 H         -3.2032327477        2.6144652045       -1.5946039747
 H         -1.7848677380        3.3298842422       -0.8397531880
 H         -2.0153348331        0.3841125032       -1.6165777361
 H         -1.3374616994        1.6508681751       -2.6425868962
 H         -0.8419699607        1.6050486816        0.9768358455
 H          0.4539121708        2.0986379352       -0.9040146261
 H          1.9820720831       -0.6444624666        0.5372260112
 H          2.1373639454        1.0463598320        0.0370603225
 H          2.6063263043        0.2900682352       -2.3055306402
 H          2.5615064552       -1.3927404616       -1.7569153293
 H          4.4111224468        1.7934486955       -1.6119847122
 H          6.7094265782        2.0203147415       -0.8445936740
 H         10.5819361069        3.1739277556        1.4004926281
 H          8.7984067121        1.8322752778       -0.4691918387
 H          9.9578018014        0.8037673767        0.5876753867
 H          7.0697379604       -4.1158769505        1.2154899690
 H          5.4298403635       -3.4555091902        1.4212486304
 H          6.0087110033       -3.9368760566       -0.2024718907
 H          4.3321250103       -2.2738142038       -0.3183074254
 H         -0.3680676704       -1.4711018923       -1.8805398167
 H         -1.1557196489       -1.2057451951       -0.3108192294
 H          0.4265850799       -1.9932454987       -0.3878085966
 H         -4.8368309004        2.8654201725        0.0710865495
 H         -4.0055678525        2.6388338718        2.9875674491
 H         -5.0657129055        1.5090660031        2.1351815121
 H         -5.5752751575        3.1776082609        2.3886346125
 H         -2.8925804422        4.5668890740        1.6814883319
 H         -3.3089676002        4.7996859716       -0.0253267074
 H         -4.5263223145        5.0283321945        1.2199590661
 H         -0.8932976963        2.6892651285        3.0509637739
