25
 energy: -42.340615793287 xtb: 6.6.1 (8d0f1dd)
C            3.16734141769550        1.12851489020832        0.18206766818524
N            2.26323933985332        0.02177456617412        0.06165415811837
C            2.59894098145841       -1.30698586558546        0.04239008247001
N            1.44927096802569       -2.02404042892032       -0.02477848138538
C            0.40050304274704       -1.16866741073233       -0.02310343948690
C            0.87688257525990        0.16160467609836        0.04639470273436
C            0.05401233861943        1.30360260007962        0.05688492278302
O           -0.72006044166564        3.68964653670255       -0.19384627476701
N           -1.30587676208256        0.91635277203434        0.01909101650022
C           -2.15519372838973        1.94044378477770        0.20363198623160
C           -1.83069498430246       -0.39719240849423       -0.05798471121620
O           -3.02821152325702       -0.60617253290810       -0.06953902827903
N           -0.92728572296062       -1.45207837814774       -0.07203264494612
C           -1.38014074965525       -2.82325969590168       -0.12566676858251
H            3.41562523391680        1.30538688035454        1.22910803483963
H            4.07608278455433        0.92645373014123       -0.38639459748494
H            2.65627076535178        2.00323377002908       -0.21175757715273
H            3.58575992491679       -1.72709589184978        0.01990812146240
H           -1.58810751150157        4.36237683365137       -0.48503246220276
H           -3.18944276016092        1.89956900377398       -0.02253871041188
H           -1.64586736736493        2.87254981433395        0.54251355249888
H           -0.98697474179933       -3.40804582255320        0.71067126422894
H           -1.06534721307877       -3.29174411777006       -1.06345781630662
H           -2.46779344377822       -2.83205906930252       -0.07103454813384
H            1.39954291874310       -3.03330999491075       -0.06238902757229
