  25
        -42.16726303
 C          4.3796198791        0.2576182105        0.0008727731
 N          3.3730266387       -0.4876468111       -0.1378611060
 C          2.6892228027       -1.5429358810        0.0691193296
 N          1.3513285966       -1.6600532948        0.0488438873
 C          0.3810206193       -0.6603132649        0.0132113862
 C          0.6763221221        0.6645634471        0.0122009668
 C         -0.3696429750        1.6673611166        0.0062324799
 O         -0.1659589157        2.8595537303        0.0121581369
 N         -1.6629974753        1.1483613599        0.0044364839
 C         -2.7878758090        2.0687832180        0.0179807128
 C         -1.9883948071       -0.1836817254       -0.0072205671
 O         -3.1271052658       -0.5714035423       -0.0150798006
 N         -0.9154811557       -1.0936525922       -0.0071165973
 C         -1.2716664068       -2.5009464322       -0.0305809982
 H          4.7946225007        0.4891444067        0.9755330986
 H          4.7940730805        0.7500698428       -0.8740051734
 H          1.6849584174        1.0319795803        0.0254191606
 H          3.2243499874       -2.4883822365        0.1674186015
 H         -2.3957033351        3.0831680586        0.0363595871
 H         -3.4013073400        1.9107323950       -0.8693084763
 H         -3.4035566518        1.8792192241        0.8975348111
 H         -0.9516063995       -3.0101669425        0.8807678477
 H         -0.8763112803       -2.9957656129       -0.9193129860
 H         -2.3616248721       -2.5459570465       -0.0733214741
 H          0.9842943729       -2.6043584854        0.0986206702
