72
 energy: -99.586253204346 xtb: 6.6.1 (8d0f1dd)
N           -1.80953072912361        2.43671881437497        2.42624068516475
C           -1.78583662831322        2.34973798603552        1.16866721901143
C           -2.61611987308736        2.62629864241882        0.15659397137018
C           -3.23876896200880        0.19412055228539        0.88953529771724
C           -4.22635166688024        0.03539639069404       -0.08856774694882
C           -4.88954234080279       -1.16809482272348       -0.21392191094048
O           -5.87777520848922       -1.45061357720105       -1.12503247007211
C           -6.30336235170480       -0.43694406119373       -2.00251728197573
C           -4.53649272583734       -2.22331141026834        0.64615689376555
O           -5.22776349457516       -3.37837393525823        0.42305239488225
C           -4.97424689280394       -4.43737158331056        1.29130090296528
C           -3.56491597097019       -2.04115155598234        1.60973751159564
C           -2.90675641728602       -0.81653203208988        1.72216507508905
C           -1.96458120425504        2.60388643864687       -1.16889153668326
C           -1.15057282293905        1.33230193359052       -1.50326227769898
C            0.11497331890732        1.27518366086834       -0.69362559766551
N            0.78576322267926        0.08531464589925       -0.56982742608771
C            2.17354801201182        0.03729979115774       -0.20447500424806
C            3.06046025869624       -0.46418619200247       -1.35779388990371
C            4.48999356962370       -0.39887339219998       -0.92254036740038
C            5.22984037032147        0.75096721926095       -1.10848131388587
C            6.53944752215888        0.83506642367247       -0.65064395674052
C            7.12550291291500       -0.23136761255717        0.00987220065596
O            8.40079205944576       -0.26487061802074        0.49419473716112
C            9.21543299962232        0.85936227278334        0.28739473425382
C            6.36713975702331       -1.40305329706445        0.22634178501964
O            7.01657541302519       -2.40142091125519        0.89321826416362
C            6.32515538627417       -3.60074810581451        1.12432707955957
C            5.06265779060862       -1.46611280465742       -0.23340164144913
C            0.07145593083154       -1.18753200093501       -0.55156325890373
C           -3.97195389504150        3.25457758059943        0.29026591718070
C           -4.65102549542282        3.03948221902612        1.65953874432242
C           -3.67498934454829        4.74213111751686        0.12841927267935
H           -4.51831208771551        0.81716733284438       -0.77688374979947
H           -6.68819884082674        0.42217888450310       -1.45127532135429
H           -7.11717253840994       -0.86207589792383       -2.59109722443165
H           -5.51377829856926       -0.11005317278478       -2.69378597124463
H           -5.17820712526821       -4.15555079501379        2.33186854108675
H           -5.66339786026453       -5.21424673906098        0.97104194801405
H           -3.93987768844089       -4.79965820483475        1.21495462076933
H           -3.28767511199612       -2.83578497807662        2.27760164937262
H           -2.14634819713273       -0.64642560676503        2.44915395715705
H           -2.75466051173626        2.70794981675440       -1.91051678642126
H           -1.28083133158637        3.46235549626913       -1.12035282723186
H           -1.73491422011668        0.43293406793544       -1.30787780555671
H           -0.95656688828078        1.38962689290774       -2.58376699924649
H           -0.72243870495057        1.68849826539169        0.67359480250713
H            0.78961047054372        2.11485809543187       -0.89465117076544
H            2.33122154333087       -0.61359662241430        0.67026466600329
H            2.46675868203587        1.05585444849057        0.05356328890249
H            2.88754814144569        0.17949771656944       -2.22204866713449
H            2.78279237788399       -1.48605326200038       -1.62028349689060
H            4.79718610578202        1.59481841009462       -1.62523410243777
H            7.09650973390857        1.74349494943299       -0.82066879014483
H            8.80858144490549        1.74856564492153        0.77910867899398
H            9.35482101075523        1.06757715188594       -0.77954483152455
H           10.17923167284071        0.61273005332408        0.73188367196187
H            7.02851205637001       -4.25287696558059        1.63970581224252
H            5.44516787534187       -3.45103352579935        1.76175410694203
H            6.01355229284823       -4.07665693607552        0.18869248856762
H            4.46469406203344       -2.34856576652244       -0.07041399281317
H           -0.41477706594959       -1.37920132151316       -1.51271274487125
H           -0.71245812322348       -1.20242511468110        0.21789331175443
H            0.76518806137766       -2.01071014920841       -0.37168648048831
H           -4.62576008000817        2.93880793650433       -0.53447673664391
H           -3.97404738365277        3.32042558263801        2.47035284105778
H           -4.91678211549117        2.00774901271361        1.79959684224181
H           -5.56677248995673        3.62025649475959        1.74117792882113
H           -2.98230532658246        5.06875844034457        0.90750839421354
H           -3.24989542032021        4.96796893497065       -0.84836270106108
H           -4.59743588642052        5.28816702037532        0.25520333967786
H           -1.55190070866684        1.54856945225402        2.85976198334683
