25
 energy: 81.501934383970 xtb: 6.6.1 (8d0f1dd)
C            3.79731347167278        0.82435000241689        0.15169421429983
N            2.60099557774338        0.06173963707713       -0.01484322779191
C            2.70463602771425       -1.26835626210295       -0.23868293617033
N            1.48075130724434       -1.84237102462602       -0.21734773453206
C            0.50479724540229       -0.87623702151511       -0.07100731112934
C            1.19955523944078        0.39068530643150        0.04741941312121
C            0.53618052339776        1.54373058656703        0.17656826044862
O            0.22425841326223        2.66990169588164        0.40234992491633
N           -2.40464307294467        1.12743767827059       -0.10962427070677
C           -3.15834056343600        2.30799901805026       -0.11235783188927
C           -2.87462438995789        0.02600218906847       -0.13126462740447
O           -3.49008545827951       -0.94768102734339       -0.17159038445187
N           -0.75427238119910       -1.06226077436586        0.00807169394755
C           -1.15337067353813       -2.44977940150169        0.08557757784661
H            3.74039777290927        1.58670319456962        0.94906475861136
H            4.54730269180942        0.00778384253500        0.29382105298261
H            4.07322893833659        1.51721097595221       -0.64771538954805
H            3.63449535367297       -1.77172997443759       -0.30233569560731
H           -2.43136376266374        3.13383691482255        0.03690740672366
H           -3.70599233669659        2.37750769728679       -1.06071843615400
H           -3.90714444419863        2.19969706218047        0.67576501312365
H           -0.65723591643362       -2.90729006427526        0.94134033688776
H           -0.83453145279815       -2.99025144931744       -0.81160402300079
H           -2.23726008419753       -2.51277650724432        0.23268009688205
H            1.33574971776861       -2.81848185120476       -0.38038088057739
