  25
        -42.19980862
 C          3.2004932788        1.1481797592        0.0057658070
 N          2.2235534780        0.1087142533        0.0008137762
 C          2.5384159007       -1.3188597262        0.0143663594
 N          1.3120700754       -2.0076393925       -0.0062793583
 C          0.3687633346       -1.1171497437       -0.0046598779
 C          0.9264658828        0.2208164937       -0.0017461303
 C          0.0564088779        1.4121610413       -0.0077444037
 O          0.4771502525        2.5440843238       -0.0226610809
 N         -1.2724126353        1.0716323570        0.0087873226
 C         -2.2440431907        2.1569811048        0.0152970402
 C         -1.8375887609       -0.2155155446        0.0011078478
 O         -3.0238028012       -0.3650043914        0.0005465272
 N         -0.9598558022       -1.3034011451       -0.0020920138
 C         -1.4972066237       -2.6519110417       -0.0057539952
 H          3.8195079206        1.0756636076        0.9027917239
 H          3.8567991615        1.0497563808       -0.8610847679
 H          2.7048585597        2.1193044840       -0.0173163406
 H          3.0983961755       -1.5812753233        0.9239673170
 H         -1.7157498855        3.0919105575        0.1838876789
 H         -2.7673624456        2.1930647259       -0.9405026324
 H         -2.9777877146        1.9821786661        0.8007160679
 H         -1.1402648067       -3.1894691152        0.8716634565
 H         -1.1624077490       -3.1777161681       -0.8989523469
 H         -2.5828608953       -2.5882054246        0.0075382934
 H          3.1652226354       -1.6027205381       -0.8369614359
