25
 energy: -42.430268037873 xtb: 6.6.1 (8d0f1dd)
C            3.39238507709962        1.09288333338310        0.12532202642010
N            2.40148848416827        0.06239242394427        0.04596825339030
C            2.64744951759325       -1.27404089080911        0.04640572868572
N            1.46463464861123       -1.94133540946814       -0.01605707221870
C            0.45744285603959       -1.03614382647684       -0.02441293787124
C            1.01677891166528        0.24059173189139        0.01496884159136
C            0.24767417252406        1.42493019337791        0.01070918310516
O            0.64647042250457        2.57814250287756        0.14405265875556
N           -1.17206778440251        1.13064524751597       -0.15122503642368
C           -2.06495349052220        2.17794357217956       -0.16629176356302
C           -1.73895197248942       -0.13467171342982       -0.06470456199453
O           -2.93473900421832       -0.32454417939362       -0.02164399408071
N           -0.87505584034762       -1.24187802903135       -0.03635377302005
C           -1.43619103188183       -2.57916165294353       -0.05286503971894
H            3.83513526531233        1.13755477800901        1.12419830089338
H            4.18846236464126        0.89157250241160       -0.59529887531287
H            2.92558597091912        2.05004078343192       -0.08987123711413
H            3.60988958496781       -1.73122575404462        0.01584801510697
H           -1.66348969508773        3.16380202235678       -0.21931530187174
H           -4.15665827970726        2.07176753303576       -0.62773264622756
H           -3.06247397777112        1.99402515554297        0.19133336715882
H           -1.13638696388187       -3.13318856457008        0.83921687090711
H           -1.11073335351624       -3.11302854059752       -0.94834164008822
H           -2.52180779347428       -2.48145138125533       -0.06763742010562
H            1.37190312435617       -2.94295065318122       -0.04609856635829
