  72
        -99.26940536
 N         -1.7565696278        2.7618188816        2.5057054918
 C         -1.7439311833        2.1035245945        1.4443268040
 C         -2.8949955166        2.0254779124        0.4781472025
 C         -3.4289529649        0.6028884232        0.4225288336
 C         -4.3830446622        0.2573272082       -0.5293188371
 C         -4.9139909838       -1.0267494524       -0.5798267030
 O         -5.8445509252       -1.4349767837       -1.4838638780
 C         -6.6287748150       -0.6313483929       -2.1507887016
 C         -4.4718484975       -2.0233893806        0.3290308422
 O         -5.0465821754       -3.2309831926        0.1937225890
 C         -4.7015984930       -4.2612027443        1.0947119037
 C         -3.5226146393       -1.6663302868        1.2748062652
 C         -3.0184429864       -0.3728378717        1.3226870184
 C         -2.3129314533        2.4312431244       -0.9017267148
 C         -1.4268403952        1.3609887361       -1.5642909321
 C         -0.0999252874        1.2056935315       -0.9268504392
 N          0.4999899662        0.0481709528       -0.6676481714
 C          1.8869113410        0.0152398691       -0.2667973549
 C          2.8124552245       -0.3701555249       -1.4374544966
 C          4.2490119862       -0.2617616389       -1.0086490545
 C          4.9366790110        0.9323898676       -1.1508365530
 C          6.2519106807        1.0495363090       -0.7289176966
 C          6.9055867455       -0.0282135738       -0.1492850499
 O          8.1751740376       -0.0299176546        0.2965542932
 C          8.9481593864        1.1420899512        0.1758360830
 C          6.2074814149       -1.2585055140        0.0022372410
 O          6.9191432234       -2.2526634529        0.5694914779
 C          6.3269579538       -3.5185736138        0.7353677278
 C          4.8925105000       -1.3510830194       -0.4257912170
 C         -0.1602108969       -1.2195286502       -0.8667057505
 C         -4.0804816138        2.9646333780        0.8529296757
 C         -4.7216492954        2.5522074175        2.1761448953
 C         -3.6910428737        4.4389242435        0.9063431842
 H         -4.7106198267        0.9837161830       -1.2552301954
 H         -6.6829646721        0.4279735917       -1.9504270085
 H         -8.4400377064       -1.5601612729       -4.2687686217
 H         -7.2803319403       -1.0989731906       -2.8898298565
 H         -4.9662521396       -3.9956346869        2.1218936456
 H         -5.2834399107       -5.1252274382        0.7816135137
 H         -3.6358443128       -4.5007342294        1.0383355703
 H         -3.1790016736       -2.3877653375        1.9977622212
 H         -2.3077836597       -0.1278060825        2.0960225728
 H         -3.1376586854        2.6522775193       -1.5785137781
 H         -1.7335792981        3.3472063356       -0.7802107880
 H         -1.9637181251        0.4150440235       -1.6101044309
 H         -1.2541755177        1.6942376993       -2.5963529907
 H         -0.8606828475        1.5492877098        1.0730240497
 H          0.4940313755        2.0968213652       -0.7889953001
 H          2.0096416419       -0.7049315974        0.5467847243
 H          2.1789406123        1.0003002533        0.1025735848
 H          2.6222620403        0.3083632381       -2.2708104846
 H          2.5908985987       -1.3873806640       -1.7621948706
 H          4.4531744148        1.7831732734       -1.6064858261
 H          6.7630743718        1.9888528299       -0.8611329968
 H          8.5085644359        1.9715696677        0.7380651836
 H          9.0714416803        1.4343552674       -0.8712486321
 H          9.9201429259        0.8951120010        0.5983363238
 H          7.0940601880       -4.1420641660        1.1904776791
 H          5.4585741749       -3.4718641869        1.4004543121
 H          6.0310559975       -3.9523610934       -0.2248704273
 H          4.3570767883       -2.2818926848       -0.3219396903
 H         -0.3265495720       -1.4181902216       -1.9279092759
 H         -1.1235207021       -1.2327924522       -0.3513742294
 H          0.4605517943       -2.0134487226       -0.4593040087
 H         -4.8314221080        2.8445623389        0.0636653986
 H         -4.0172300599        2.6910024687        2.9895919251
 H         -5.0371941860        1.5117232119        2.1557673452
 H         -5.5953496958        3.1699433554        2.3651605447
 H         -2.9178421914        4.5990077912        1.6508825611
 H         -3.3445226826        4.8025884384       -0.0572463080
 H         -4.5614161987        5.0248134296        1.1893052071
 H         -0.9092856262        2.7747360462        3.0649635750
