25
 energy: -42.139600292127 gnorm: 0.009292457088 xtb: 6.6.1 (8d0f1dd)
C            3.17568438094766        1.14870717069693        0.51831093550336
N            2.29370030400742        0.08796194536428        0.13897842168249
C            2.62446902622469       -1.24108760112358        0.28511936698613
N            1.60335214855910       -1.95536428596885       -0.11123138204179
C            0.50545113339485       -1.13732243947342       -0.61891813753257
C            1.05564322771584        0.21822994009978       -0.34915851513449
C            0.19406284640038        1.38412783014747       -0.30509094249633
O            0.58360260560587        2.53205887151818       -0.29687712904447
N           -1.14768440054440        1.03971966189985       -0.22695114092310
C           -2.12484910143415        2.10993687608204       -0.20631256115007
C           -1.64406983739402       -0.23159806643307        0.10044768549656
O           -2.79366119103708       -0.36875598331191        0.42698396712945
N           -0.76046664965030       -1.28849210943534        0.05483351702408
C           -1.27292708575391       -2.62712813319554        0.26066759411360
H            3.47879380492074        1.02228641306012        1.55902079174034
H            4.07989042534216        1.10072233944867       -0.09389224499328
H            2.68694713697335        2.11183111956944        0.37598719735437
H            0.36807329328021       -1.36114137801733       -1.69258570997168
H           -1.61405555536094        3.04861482567079       -0.40982247035395
H           -2.88829086173709        1.91710492596883       -0.96174396977404
H           -2.62157128811553        2.15462841397135        0.76505621835046
H           -0.72190211673402       -3.11834920552346        1.06408624645178
H           -1.19515881788087       -3.21796362472798       -0.65424194096487
H           -2.32039500586253       -2.54625724286316        0.54818084678709
H            1.61579309223083       -2.96423172182693       -0.13967502633678
