25
 energy: -42.166644400755 gnorm: 0.009251035062 xtb: 6.6.1 (8d0f1dd)
C            4.23688125665063        0.49501781547357       -0.03172003249022
N            3.41810729743813       -0.42310176918399        0.23770666953422
C            2.73135542739983       -1.47622538876584        0.01744596445253
N            1.39801536621697       -1.60538212007865        0.04807250406916
C            0.42218532948709       -0.60326340949092        0.05810889502963
C            0.71617289408003        0.72160610297487        0.10271534765361
C           -0.32096749972352        1.72969281868594        0.07509607645875
O           -0.10843587113300        2.92019546846572        0.09842801958671
N           -1.61464052702136        1.21837798322500        0.00896854718529
C           -2.72324858515698        2.15585321371642       -0.03149500651037
C           -1.94370812385361       -0.11081729742848       -0.02253874338950
O           -3.08204603714087       -0.49572358158811       -0.07467001271611
N           -0.87382972887721       -1.02874323314465        0.00387355772412
C           -1.23812297658173       -2.43352383452156       -0.03634058274022
H            4.68799971273218        1.05747596153250        0.78307069923960
H            4.49710695854272        0.75572661956473       -1.05779664826376
H            1.71969133303537        1.09271192897051        0.16119341010413
H            3.28497703729092       -2.41224113869872       -0.05847394253987
H           -2.30950185643733        3.16233198133061       -0.01832492149843
H           -3.30987216473785        1.99688828000849       -0.93633376933770
H           -3.37257215812121        2.00096096902362        0.83040170887169
H           -0.90283897969304       -2.95678025249340        0.86071918068879
H           -0.86049726084588       -2.91731941474748       -0.93907386289092
H           -2.32866664011445       -2.47317600066223       -0.06376450988985
H            1.03688731066456       -2.55230316056847        0.01590306956885
