72
 energy: -99.219180252824 gnorm: 0.007525349010 xtb: 6.6.1 (8d0f1dd)
N           -1.43687176150810        1.52133839122869        3.25466206185491
C           -1.42455041882927        1.57799948829247        1.91464344119031
C           -2.64271917602288        2.28211910411519        1.11742838067870
C           -2.46238560870434        0.84447101501398        1.13975517256427
C           -2.68387984163036       -2.83736799808370       -0.41027324179537
C           -3.99999850665419       -2.79246837135828       -0.56600277373945
O           -4.85420059683823       -3.82957873428895       -0.82730305129531
C           -4.30693377535443       -5.10025897354960       -1.08510417255145
C           -4.73708266593264       -1.51575785385398       -0.50390995755745
O           -5.95239337214407       -1.60301343543186       -1.05838654037075
C           -6.86283138517467       -0.53514400219590       -0.91997802349264
C           -4.22028630347796       -0.38328191870493        0.05042686017916
C           -2.99288473263522       -0.31860183930811        0.77804522906718
C           -2.21590968782381        3.06521767753342       -0.11861586284254
C           -1.59988217117797        2.20406346900196       -1.23851050004166
C           -0.22402423692926        1.77322936423194       -0.91687824377933
N            0.27295356045581        0.56037780250830       -1.07283038096358
C            1.63861492585493        0.28397556252560       -0.69265484728870
C            2.57044103193902        0.12719746395641       -1.90900413735415
C            4.00080772448745        0.10807193049255       -1.44531581944715
C            4.82298285983773        1.20702786898815       -1.62964374142799
C            6.13169808564678        1.19931776809120       -1.17171068236688
C            6.64100129346218        0.09407920880247       -0.50519092242379
O            7.88822688208657       -0.02074412013272       -0.01572053773964
C            8.79673106471988        1.04221978197132       -0.19221234070580
C            5.80025706001344       -1.03640955617601       -0.30163126912005
O            6.36809910569791       -2.06202243084599        0.36172943345145
C            5.61030697508525       -3.22012325093551        0.61928807258984
C            4.49942685859677       -1.00917482159455       -0.77823578054836
C           -0.47323971577937       -0.52096197800051       -1.66979353629443
C           -3.75187183041750        2.93747330984010        1.93459127882005
C           -4.37569072397926        1.97983294084787        2.94453749758755
C           -3.22927492177343        4.18422254251824        2.64645949570567
H           -2.00968638251286       -3.67046972354331       -0.39852705041066
H           -3.64104044349622       -5.07821570698064       -1.95482546161961
H           -5.15888971851975       -5.74876092901897       -1.29475360559300
H           -3.75557856815243       -5.48649196885426       -0.21855717501033
H           -6.55052899686023        0.33510108243262       -1.50557697822393
H           -7.81153763112155       -0.90495693812292       -1.30439447359670
H           -6.97934233450785       -0.24820961303695        0.12941817613866
H           -4.77609489577542        0.53968447426204       -0.01346326160152
H           -2.51419713607544       -1.26828184196987        1.00150877294813
H           -3.10610648905320        3.55189534509439       -0.52261783303665
H           -1.51371562117014        3.85554022716301        0.15830759441369
H           -2.24916656679430        1.35684365001549       -1.45382255990458
H           -1.55741865752679        2.83467941321520       -2.13562069179298
H           -0.47386473687139        1.74485906147991        1.38949899341451
H            0.45769381629756        2.53338021494040       -0.56267357692127
H            1.65761945559358       -0.62935693500161       -0.09198703974202
H            2.01144927014796        1.10336385323486       -0.07454061170578
H            2.41473549005606        0.96861019633124       -2.58578301005205
H            2.33578322582008       -0.79340840920983       -2.44529703712090
H            4.45208776821572        2.07980199872713       -2.14496518339840
H            6.74986964304130        2.06569293102922       -1.33979024539825
H            8.44730028340694        1.95394151411329        0.30175131357984
H            8.97319343134383        1.24517480824057       -1.25269234678833
H            9.72449448280199        0.71352728909885        0.27187857438592
H            6.27551636229647       -3.89074064173222        1.15948982334028
H            4.73807700329461       -2.99737455947050        1.24243272779679
H            5.28588885996149       -3.70242198734859       -0.30795629086201
H            3.85985485336194       -1.86714687526787       -0.64331586421873
H           -0.76866788290906       -0.26965737684708       -2.69014588716340
H           -1.37333214827300       -0.75858815514321       -1.09207660144833
H            0.14944887152903       -1.41096868989654       -1.69762357831822
H           -4.52902146730194        3.24494894399373        1.22101021231143
H           -3.61147402443492        1.62920971803876        3.63435687345865
H           -4.81967779172233        1.11868751442795        2.45214373923086
H           -5.15024200894808        2.49422269180024        3.50745378372829
H           -2.46740641724128        3.89403450163530        3.36653731149960
H           -2.80419834706731        4.89646482595378        1.94346816548216
H           -4.03789678773314        4.67455585178181        3.18082940544589
H           -0.56204816127822        1.74764436139742        3.70952517883974
