  72
        -99.38809646
 N         -1.7929605696        2.8651540306        2.5821503895
 C         -2.4400654875        2.1269466152        1.8845173445
 C         -3.1862007994        1.9792334881        0.6662481907
 C         -3.8257085922        0.5987582421        0.5940767603
 C         -4.6458161668        0.2506545902       -0.4783516025
 C         -5.1877533869       -1.0204110346       -0.5798115239
 O         -5.9856648225       -1.4497635456       -1.5777856690
 C         -6.3787638433       -0.5483370409       -2.5859563924
 C         -4.8929258488       -1.9900175744        0.4177798917
 O         -5.4268235024       -3.2093656316        0.2143750459
 C         -5.1532031089       -4.2381552077        1.1373019397
 C         -4.0956342943       -1.6248483348        1.4912610322
 C         -3.5705354052       -0.3437968869        1.5759743774
 C         -2.2274994483        2.1957870821       -0.5481527021
 C         -1.4039969048        0.9799517887       -0.9695734848
 C         -0.1429249106        0.7435810415       -0.1306974053
 N          0.8169137331       -0.0480949455       -0.8806314761
 C          2.1974394511        0.0322067590       -0.4474221942
 C          3.1746748154       -0.1395844649       -1.6276938843
 C          4.5976291445       -0.0930527433       -1.1505209468
 C          5.3478269295        1.0711949055       -1.2278066044
 C          6.6542769774        1.1099743830       -0.7655006843
 C          7.2411650448       -0.0173567432       -0.2070006812
 O          8.4948848724       -0.0947578489        0.2781570363
 C          9.3287063596        1.0392325755        0.2182923683
 C          6.4825915950       -1.2188019279       -0.1251356270
 O          7.1289044926       -2.2668198631        0.4239402838
 C          6.4744435979       -3.5094592512        0.5172598654
 C          5.1795425264       -1.2325831365       -0.5981247072
 C          0.3740672876       -1.3971471142       -1.1460038564
 C         -4.3090417817        3.0755152146        0.6568578931
 C         -5.2907942840        2.8699176429        1.8076586871
 C         -3.7707500812        4.5015968079        0.6727509523
 H         -4.8546634978        0.9753537992       -1.2479106801
 H         -6.9305833048        0.3010758047       -2.1718154708
 H         -7.0339033824       -1.1158256853       -3.2440043958
 H         -5.5197096056       -0.1850032366       -3.1592824344
 H         -5.5491292922       -4.0030202593        2.1297784554
 H         -5.6562724877       -5.1211280634        0.7484556078
 H         -4.0788281236       -4.4351263277        1.2090237742
 H         -3.8732901442       -2.3336901678        2.2718928017
 H         -2.9514685217       -0.0785034254        2.4223607735
 H         -2.8572997488        2.4842143073       -1.3906911027
 H         -1.5613846638        3.0288370828       -0.3252657618
 H         -2.0350096689        0.0914694861       -0.9433641299
 H         -1.0814796291        1.1341492025       -2.0011157817
 H         -0.4257672496        0.2644511138        0.8265809673
 H          0.3243015261        1.7035208812        0.1004837755
 H          2.4231252278       -0.7270119209        0.3180312206
 H          2.3726984924        1.0155408275       -0.0057812821
 H          2.9904304092        0.6556677916       -2.3504428110
 H          2.9946847478       -1.0951599824       -2.1209598958
 H          4.9168192013        1.9597449740       -1.6627555291
 H          7.2130716560        2.0279512047       -0.8470160470
 H          8.9150122408        1.8721297419        0.7952489442
 H          9.4970174708        1.3580724016       -0.8147447993
 H         10.2745650535        0.7298211329        0.6593044923
 H          7.1950013292       -4.1857850451        0.9735171108
 H          5.5844375616       -3.4479074992        1.1517503104
 H          6.1947736887       -3.8905011122       -0.4698178359
 H          4.6004324515       -2.1416531269       -0.5507846911
 H         -0.5430224537       -1.3785856920       -1.7294596557
 H          0.1908459445       -1.9609063202       -0.2198209309
 H          1.1284207657       -1.9223060177       -1.7258849699
 H         -4.8522734443        2.9301181643       -0.2817975722
 H         -4.8091683351        3.0436748050        2.7672140010
 H         -5.7010122441        1.8629755401        1.8008626143
 H         -6.1146788653        3.5729054676        1.7117669965
 H         -3.1918315965        4.6961191030        1.5719383004
 H         -3.1515172269        4.7115795313       -0.1944969257
 H         -4.6092346153        5.1937749105        0.6565087397
 H         -1.3781245525        2.7286092035        3.4886150148
