  25
        -42.10302745
 C          3.2184793384        1.1555104162        0.0164880265
 N          2.2774062683        0.0672865054        0.0030199970
 C          2.5608264803       -1.2302947039       -0.0117938777
 N          1.4225421283       -1.9530040142       -0.0080689159
 C          0.3661099336       -1.0754970735        0.0134275150
 C          0.9101984131        0.2038918082        0.0193772472
 C          0.0887149567        1.3944407588        0.0201587486
 O          0.4921228562        2.5348842894        0.0246046030
 N         -1.2719418873        1.0674926721        0.0083163661
 C         -2.2208577924        2.1773040007       -0.0027244921
 C         -1.8535109449       -0.1702984932        0.0029027028
 O         -3.0356433912       -0.3536993199       -0.0137936515
 N         -0.9636880820       -1.3287768926        0.0196389055
 C         -1.5296086904       -2.5448819538        0.0439387787
 H          3.7174836936        1.2126033975        0.9848588687
 H          3.9711882435        1.0141652878       -0.7582303162
 H          2.6802700810        2.0870019007       -0.1556233995
 H          3.5492976063       -1.6467329495       -0.0329287733
 H         -1.6542891114        3.1039656826        0.0429283663
 H         -2.8173194706        2.1446685556       -0.9134944241
 H         -2.8891621764        2.0984880851        0.8533930929
 H         -0.9313267409       -3.4328607146        0.0690176764
 H         -2.7237047584       -4.7519542287       -1.8188595625
 H         -2.6023061854       -2.5842822159        0.0505857643
 H          1.3703875977       -2.9619263931       -0.0243264486
