25
 energy: 34.656675491551 xtb: 6.6.1 (8d0f1dd)
C            3.51446647196971        1.77038328104964        0.10009256692341
N            3.53815411972653        0.76431809227080       -0.65296289647699
C            1.59540914521587       -1.12945976184587        0.32234919832270
N            0.99595656979116       -2.35134370267032        0.16785769355634
C           -0.35526153349257       -2.21468304926457        0.08768656152301
C            0.52076476915860       -0.24145040364195        0.33068462791673
C            0.18252493310658        1.14308808827759        0.24243852962272
O            0.83975402568042        2.16262259177461        0.35699799167699
N           -1.21391529687821        1.16800899748286        0.03631792429224
C           -1.98958991988360        2.38638303837467        0.00149974136323
C           -1.79922674370257       -0.05231126594093       -0.10120146805063
O           -2.98175587224492       -0.32593170075776       -0.19709898606903
N           -0.69306460003630       -0.91323325592825       -0.06230812383431
C           -1.30652111359650       -3.30106506298866       -0.09641573674741
H            3.36393950794839        1.65445806675398        1.16365533432574
H            3.64388521446245        1.04345041495999       -1.62717105664339
H            3.63291038128791        2.81576320647463       -0.23149608775829
H            2.67705480128406       -1.00220294225002        0.49273310378991
H           -1.28690405603409        3.21087075267852        0.08122711225989
H           -2.53625231253613        2.46675775819257       -0.93889695400515
H           -2.70338432080223        2.43210869697799        0.82765668271792
H           -1.28182650805425       -4.02844646710885        0.71464246949365
H           -1.12670630704368       -3.84893045390097       -1.02505858766519
H           -2.28358494055532       -2.84143621439718       -0.16231202810280
H            1.44310678050811       -3.25696373274092        0.19399245873535
