25
 energy: 9.905664989862 xtb: 6.6.1 (8d0f1dd)
C            3.21318297588902        1.24657253614741       -0.00917190982923
N            2.21752994444012        0.18078528978676       -0.13191751325041
C            2.46802744021365       -1.17825155919149        0.08363595772024
N            1.34047553434534       -1.97524146229348        0.10828100419408
C            0.28352258986924       -1.15978057355587        0.03113312716238
C            0.80516389692139        0.14591890698046       -0.01085997616155
C            0.08235957962323        1.32649010619067        0.08235671998247
O            0.53667027581520        2.47222899657591        0.16556810947216
N           -1.31266395921626        1.02236430970003        0.03159980166952
C           -2.18515938281854        2.18368870317255       -0.03158814194843
C           -1.88082469676085       -0.22303391908118       -0.07620375569923
O           -3.07803187009058       -0.37781008640632       -0.17745124305575
N           -1.05279871361645       -1.40470836864568       -0.01807999210624
C           -1.49170390106826       -2.78228702127613       -0.10554885382403
H            3.68256548322025        1.29852931223173        0.99083444532652
H            3.91600853626972        1.07716051010262       -0.84298748467192
H            2.78362585710722        2.23363400372350       -0.14658299312653
H            3.42591756529860       -1.54024020613388        0.32948084276197
H           -1.56560053518079        3.08139861201840       -0.00138237722522
H           -2.77178779764300        2.17377661192459       -0.95028369988291
H           -2.85369167957291        2.17763744845297        0.82482864601765
H           -1.18619791487682       -3.33487143255685        0.78515003978005
H           -1.12336110699364       -3.29160579480751       -0.99473435696485
H           -2.56921140287723       -2.71938031309279       -0.14165670539989
H            1.35443538518987       -2.98503562881179        0.11431230736318
