25
 energy: 20.618421534593 xtb: 6.6.1 (8d0f1dd)
C            3.20778683670223        1.27028344137887       -0.04664733023667
N            2.20397158393464        0.19278532121298       -0.21273674822697
C            2.43832144335625       -1.16595127373442        0.05820073806106
N            1.32072380639643       -1.99111864911453        0.13303485687520
C            0.25534697102721       -1.19254990443047        0.01478750032194
C            0.78416571296540        0.11658601518347       -0.05881050169790
C            0.07911689639483        1.30263870959751        0.10855650385259
O            0.55018059411133        2.43751646914084        0.22517646965886
N           -1.31832218446520        1.01804042039023        0.05757847816446
C           -2.17081879403441        2.19471618055652       -0.02451215240659
C           -1.88065011728995       -0.23314337729069       -0.08356170451050
O           -3.07939270434518       -0.37169920419378       -0.21665203437195
N           -1.08178694881952       -1.43638821197171       -0.01086573090542
C           -1.49709171794374       -2.82675570218144       -0.11921054028527
H            3.66931448538547        1.32323259898267        0.96192363524426
H            3.88953618343932        1.09589916899962       -0.90053034513410
H            2.81230617880646        2.27434797481693       -0.16769759805145
H            3.37394015186032       -1.49273903624641        0.42971586748656
H           -1.53389162522272        3.08099302673631        0.00666444766350
H           -2.75133640697155        2.19709340970952       -0.94819257622264
H           -2.84417022691252        2.21027104022612        0.82740745880136
H           -1.19180527118170       -3.37959097452244        0.77044191723371
H           -1.11539471256946       -3.32849741244861       -1.00612395358489
H           -2.57237823775535       -2.77235500307064       -0.16417853459907
H            1.35772987809732       -3.00138453742016        0.15267784613738
