25
 energy: 115.600617575976 xtb: 6.6.1 (8d0f1dd)
C            3.35183766376443        1.45108964123854       -0.22840356797977
N            2.59164817730139        0.32774135439580       -0.70305290448283
C            2.06950913617689       -0.73050122117012        0.17877276705913
N            1.26300141320265       -2.12103465125234       -0.12124978070916
C            0.11672571890028       -1.42070258451336        0.13875152090374
C            0.70133127088254       -0.19098157848670        0.39853592834301
C            0.16868831942777        1.11879797717921        0.28704830271069
O            0.72394400887016        2.19178082590308        0.44120000902997
N           -1.24905011859357        1.01001659573529        0.05210045119684
C           -2.04113165940941        2.26828080634888       -0.00458002121926
C           -1.90921493573279       -0.20024643564737       -0.09802374260029
O           -3.09382683418750       -0.27556829310619       -0.28004550873381
N           -1.17908139020241       -1.48478836537540       -0.14241663575455
C           -1.55313371088188       -3.01445474429362       -0.19482701124250
H            3.59481441416187        1.46834014949918        0.86375340024712
H            3.94742979178853        1.26743366145816       -1.18778815654060
H            3.05268059660969        2.51215133874266       -0.30343716721218
H            2.86017315302790       -1.03272692925083        0.90569654352710
H           -1.33707969026828        3.09804876471214        0.05344049352885
H           -2.61651442863234        2.34913902278284       -0.93510542911127
H           -2.74172820561191        2.37329953475631        0.83042672203554
H           -1.22711244186383       -3.59503077508440        0.67938476393445
H           -1.10549912271442       -3.53510374759116       -1.05228986343715
H           -2.61812115261844       -3.02820342781507       -0.25183999266882
H            1.46970433295138       -3.09647805037547        0.10901276731468
