25
 energy: 38.022940962348 xtb: 6.6.1 (8d0f1dd)
C            3.50273802563056        1.75930141285338        0.10313259532167
N            3.46528718592184        0.74972360775344       -0.64300028509979
C            1.60613610840011       -1.12640115115966        0.36252892285072
N            0.98651335271026       -2.34143080098362        0.21264887651307
C           -0.36023007013124       -2.18998398733889        0.09174007481944
C            0.53354076803465       -0.23675897356940        0.33798286288709
C            0.18796177698920        1.14015026671040        0.25078286763481
O            0.87593298050657        2.14390400990201        0.36366766511059
N           -1.20617025730652        1.16982493208825        0.04388362447214
C           -1.97989081077865        2.38542029253097        0.01014346383277
C           -1.80506095580530       -0.03578698747366       -0.09199576433326
O           -2.98985047678461       -0.30065446519653       -0.17258236346182
N           -0.70211615355372       -0.90465068151787       -0.09282045556990
C           -1.31306359329361       -3.30223109830833       -0.10765895151847
H            3.38780376822465        1.66772430947601        1.17891834720828
H            3.67738629852887        1.01580281088289       -1.60808469083726
H            3.61314440609966        2.78670839244438       -0.23360753172364
H            2.66228737085862       -1.01234714000027        0.58592359237927
H           -1.26369469425762        3.20342889043892        0.08396526760555
H           -2.52739134819109        2.45113526843159       -0.92405714794918
H           -2.69449230374624        2.43410861383125        0.83520995030147
H           -1.27301073478344       -4.00336295715733        0.71377106789884
H           -1.12028348158673       -3.85180483137104       -1.03840513600341
H           -2.30786445298545       -2.87380651552035       -0.17617957190161
H            1.41893438030112       -3.25543934957038        0.18959521308180
