25
 energy: 30.849726051858 xtb: 6.6.1 (8d0f1dd)
C            3.48366341035865        1.78904075741414        0.11498772210785
N            3.54003177181235        0.78349162365623       -0.63314280887138
C            1.58098853845062       -1.12419751526611        0.26863538479620
N            1.00263582956043       -2.35131312175650        0.14323196533009
C           -0.36073970347709       -2.25447410286156        0.08122537276581
C            0.50922744969331       -0.24340565049864        0.28135730358838
C            0.17776744340184        1.14651601430491        0.24106868547461
O            0.86135833830997        2.15467162150281        0.34743741434272
N           -1.20678335789960        1.17126222716016        0.02821702119047
C           -1.98477760585294        2.38254592432478       -0.00637054084834
C           -1.78618791626885       -0.06320338222991       -0.10163542699954
O           -2.97370773560050       -0.30974079138763       -0.21506457419624
N           -0.69092941536732       -0.93442664504889       -0.04263404855249
C           -1.32350667008215       -3.33272567727596       -0.09973390982052
H            3.33408794827632        1.65410517834228        1.17145238078314
H            3.62867579767993        0.99671764927085       -1.62285653490135
H            3.62634920815653        2.82813518840511       -0.19132170776480
H            2.66281834889625       -0.94081940677017        0.43920475482250
H           -1.29060927559014        3.21714611225939        0.07145069735617
H           -2.54666439704691        2.46755634238408       -0.94097577791469
H           -2.68548605217322        2.42204292340719        0.83059523288669
H           -1.30066429325478       -4.06977287168356        0.70991288921179
H           -1.15453611932826       -3.86989545818922       -1.04090824443425
H           -2.28657608326530       -2.85648432400300       -0.16787536059069
H            1.47216444081846       -3.24901370307207        0.20697000811194
