25
 energy: 50.557809910709 xtb: 6.6.1 (8d0f1dd)
C            3.20548128855791        1.32368743376164       -0.11477802373695
N            2.19910760980089        0.20949833882031       -0.35110091754279
C            2.39402157369650       -1.11832327538720        0.07756506987348
N            1.31444190821682       -2.02925883794355        0.14398132474474
C            0.22308664287115       -1.26087914626223        0.00812697423151
C            0.76416042851140        0.06142416195719       -0.02109221986918
C            0.08163862784851        1.25698923631991        0.18042034885481
O            0.58268187101871        2.36919886449190        0.33278259051554
N           -1.31547963352428        1.01922075592980        0.10315704668726
C           -2.13632339820621        2.22228975180323       -0.00936608530484
C           -1.89700490785307       -0.22334141603536       -0.09070105369572
O           -3.08492907388216       -0.33505076887681       -0.28359150188509
N           -1.11295429519347       -1.47753865280026       -0.05798179106081
C           -1.50325677879619       -2.90583988109558       -0.14735179311207
H            3.64751218127248        1.37667721509494        0.90838549309128
H            3.83628867529605        1.14400051343778       -1.01039957304801
H            2.87148513673079        2.35570098939696       -0.21057776941069
H            3.27538517134976       -1.38208104710284        0.60220028917175
H           -1.47007785824010        3.08619865623190        0.02779761375310
H           -2.70578566681989        2.24759337288974       -0.94237754451431
H           -2.82199372015418        2.27333247072284        0.83179718514007
H           -1.19625334463831       -3.45704158232068        0.74158364815350
H           -1.10227717552719       -3.40563503725809       -1.02685125963394
H           -2.57563104500531       -2.87531311892401       -0.20490424695358
H            1.39412248296138       -3.03783117409576        0.21733478681695
