25
 energy: 1.258015987969 xtb: 6.6.1 (8d0f1dd)
C            3.22185543417811        1.22261682050636        0.02480875155252
N            2.24300488338367        0.15945886039005       -0.06246158162070
C            2.50838616622819       -1.19541295069209        0.10218005838032
N            1.36518052695824       -1.96127182621031        0.07517303315592
C            0.32004488301156       -1.12462003607944        0.03074954307251
C            0.83832652383780        0.17661092031788        0.01941039054754
C            0.09146322829918        1.34922117843704        0.05453870704207
O            0.52345691453395        2.50535784302396        0.10734212661530
N           -1.29973043309190        1.02973744695665        0.00717853415418
C           -2.19761614695352        2.17228478705592       -0.03856929934130
C           -1.86590475088651       -0.21461205994028       -0.07214576548944
O           -3.06332563571652       -0.38049927398501       -0.14255743290285
N           -1.01751087859185       -1.36825332267986       -0.01958602609944
C           -1.48494056686359       -2.73486311998018       -0.09015024940433
H            3.69672339357561        1.27409425756213        1.01716407692524
H            3.94596587142707        1.06161909186615       -0.78715642711598
H            2.75399778466735        2.19025254873058       -0.12722358764018
H            3.47730463510041       -1.58458791380415        0.22731112870243
H           -1.59815170142327        3.08258272292310       -0.01008135756034
H           -2.79115283999352        2.14845778036425       -0.95205349576615
H           -2.86217204350585        2.14464860308711        0.82173224710563
H           -1.18010760611703       -3.28868706717263        0.80031340957154
H           -1.13021486470933       -3.25153303991097       -0.98226089363480
H           -2.56504543886719       -2.66451089651255       -0.11884090253414
H            1.35359865639108       -2.96988644586062        0.07140311693092
