25
 energy: 64.458700354252 xtb: 6.6.1 (8d0f1dd)
C            3.44797800019463        1.69438614503988        0.02217704554319
N            3.33593802216093        0.70050727363683       -0.72985460593067
C            1.62245791799327       -0.96151050076943        0.37707841919686
N            1.04670723105725       -2.22614588196815        0.21565313218773
C           -0.32887543828117       -2.11910600209406        0.07756888586920
C            0.51800230809351       -0.17849697899324        0.14503338656749
C            0.13460504978787        1.16609433344248        0.22873274463335
O            0.84255710838971        2.14441301785711        0.37361238184869
N           -1.25063671949190        1.16386805230832        0.09537941117222
C           -1.99136472730031        2.38777600374692        0.02243023443182
C           -1.83642727873293       -0.05812677769209       -0.07747476508899
O           -3.02590899218457       -0.28683379244769       -0.19754507817748
N           -0.75016009561447       -0.90632252333668       -0.29236670292441
C           -1.37273759832102       -3.26955850095816       -0.16060453917158
H            3.46131931860350        1.60030280968418        1.09701997227353
H            3.56884207654110        1.09231071799451       -1.65341126039164
H            3.40170320719193        2.72747873267878       -0.30476973709170
H            2.58226460566026       -0.83344656310312        0.89891775514677
H           -1.23682140977338        3.16658849844073        0.08585363575806
H           -2.54636598437250        2.46113899804274       -0.92162624705329
H           -2.68807340562083        2.48770316810380        0.85281999586266
H           -1.29157776536261       -3.90867067195843        0.68224241761529
H           -1.16702712041187       -3.78035220272638       -1.09626280090729
H           -2.43024386493160       -2.94767571158121       -0.21383579445041
H            1.45836758094020       -3.15424598293640        0.25343879130656
