25
 energy: 27.186235808762 xtb: 6.6.1 (8d0f1dd)
C            3.48376163569371        1.83419756001628        0.13933299512883
N            3.53524537622570        0.83020821546143       -0.60371428943375
C            1.55752212981112       -1.11870829620541        0.25743118057765
N            0.98083290429469       -2.34520234442579        0.15233223063243
C           -0.38186529997916       -2.27834916480421        0.07146844613468
C            0.50310643241176       -0.22989746351568        0.24487786185875
C            0.16912419604279        1.15933258074614        0.22563462856858
O            0.86158414822548        2.16451146595264        0.32909662350527
N           -1.21243043439774        1.18079679838958        0.04474451605561
C           -1.98780564880053        2.39421769301413       -0.00458686908128
C           -1.77032513147180       -0.07089822438919       -0.08965360933318
O           -2.95544646780212       -0.32190073955174       -0.22033632429198
N           -0.68220630438931       -0.93809457597142       -0.00943616517523
C           -1.35594807557542       -3.35619004698257       -0.11998462275492
H            3.31680305114236        1.69828126170551        1.19476224704278
H            3.66108522524015        1.02315664903607       -1.59806243801612
H            3.62221387253809        2.86412898983191       -0.16771520453897
H            2.64068395383512       -0.95122418534146        0.36835907419095
H           -1.30076723703786        3.23563749378497        0.06156173432547
H           -2.54657057453327        2.45091939715193       -0.93765076273211
H           -2.69898639465232        2.44537379560599        0.82096941862264
H           -1.31829685342198       -4.08086493056806        0.68756516656613
H           -1.17869361520393       -3.89512462331945       -1.06642515819590
H           -2.32676173464409       -2.88992457103906       -0.17539166786726
H            1.46391814913844       -3.23065827869778        0.19799867478514
