25
 energy: 137.301344843998 xtb: 6.6.1 (8d0f1dd)
C            3.42017667287739        1.64925224233635        0.00286362613703
N            3.25084473335381        0.66128383825402       -0.74147683517245
C            1.83989042553146       -0.90954366946923        0.39914560061490
N            1.17165708384397       -2.17583219532878        0.10394354268776
C            0.00317448748779       -1.46658859660501        0.10847036138524
C            0.63530562291590       -0.21508884354044        0.33091439878665
C            0.14934582668037        1.11143649014246        0.25800063653633
O            0.77331198632701        2.15038409258197        0.36476687314431
N           -1.24654016686576        1.04663474312858        0.08101578884680
C           -1.99492848300812        2.32157137517957        0.01322066192245
C           -1.90818987947565       -0.17648097467251       -0.11184080314019
O           -3.10426043215387       -0.24417746877073       -0.25595967846066
N           -1.20815950178299       -1.44519612064663       -0.35396203119278
C           -1.57005481462689       -3.12836250121044       -0.22175087584715
H            3.46688198840130        1.57533934287199        1.07454817478742
H            3.55403342113419        1.07378961013481       -1.63531334024451
H            3.36183338240411        2.68525074893767       -0.31982210573616
H            2.69539432979665       -0.82490336748255        1.01079536651653
H           -1.24935088764893        3.11563012917463        0.08247422186636
H           -2.55323188001342        2.42757447545481       -0.92565385775544
H           -2.69692122217219        2.46586270729194        0.83847527256976
H           -1.25022858796220       -3.69570568447286        0.66321660553010
H           -1.15671377574778       -3.63748282988741       -1.08414084163392
H           -2.62565508296252       -3.02576518516858       -0.23542556638265
H            1.41191547569379       -3.15143162940739        0.20490218384879
