25
 energy: 34.241746387822 xtb: 6.6.1 (8d0f1dd)
C            3.20492576115711        1.29471954538500       -0.08167858076605
N            2.19831146348672        0.19715159143713       -0.28433732618276
C            2.41607158968922       -1.14677217088865        0.06652281237829
N            1.31422937214294       -2.01165930051228        0.15715206744408
C            0.24065201713283       -1.23312354398489       -0.00672464892660
C            0.77106419118057        0.08817650360495       -0.06074753630543
C            0.07987962799778        1.27867712187464        0.14094707292908
O            0.56530094452270        2.40281795068094        0.28284027721053
N           -1.32023130611842        1.01651176020049        0.08380972624219
C           -2.15475252215469        2.20726731995932       -0.01713833285270
C           -1.88376216967865       -0.23208502924314       -0.09263616573903
O           -3.07887879874628       -0.35984902882601       -0.24893611037655
N           -1.09255699999273       -1.47049084367033       -0.06964890900332
C           -1.50027364311004       -2.87199327124124       -0.13831796512010
H            3.65735835264254        1.34872118037323        0.93418541583195
H            3.86328635511033        1.11772751367387       -0.95631569957271
H            2.84118536882193        2.31391587375678       -0.18863372369057
H            3.32652652919709       -1.43937050386325        0.52239125687158
H           -1.50159281403032        3.08188356108495        0.01506054987340
H           -2.72949855825878        2.22055356932179       -0.94569493985953
H           -2.83345500399225        2.24295339083809        0.82970952011044
H           -1.19428714372918       -3.41824568415307        0.75546375664164
H           -1.11102922183006       -3.37487314563181       -1.01916603370493
H           -2.57401082169847       -2.82337604020979       -0.18515414564233
H            1.37158520409838       -3.02174115397574        0.18628854594156
