25
 energy: 42.672211841518 xtb: 6.6.1 (8d0f1dd)
C            3.49690887796390        1.75320396281540        0.10289782425963
N            3.49774236913660        0.75147456162726       -0.64930111788310
C            1.62194291286095       -1.10874014223577        0.38714664194554
N            0.99136065185308       -2.32533217968265        0.23552948074680
C           -0.35938037423874       -2.17198983729459        0.09278633281415
C            0.54652089494050       -0.22658881041061        0.29236266898802
C            0.18355696780062        1.14718636749676        0.26413705881658
O            0.90895216137154        2.12541596545053        0.39660013788908
N           -1.20434131939820        1.17366891246835        0.04099955296422
C           -1.97395679704075        2.37829515488013        0.01090714908722
C           -1.80310626882374       -0.03212690257198       -0.11076759483715
O           -2.99390543828952       -0.27605588570846       -0.18007605103785
N           -0.71056145174185       -0.90394872329532       -0.14471120646759
C           -1.32689794352683       -3.30664926805295       -0.11574547220199
H            3.41435208060762        1.66502448988988        1.17791079086386
H            3.70344408545850        1.07734393107114       -1.59965303106891
H            3.56360643390454        2.77572978063678       -0.23987756155122
H            2.67560596876910       -1.04561734638577        0.66371555725275
H           -1.26095806136264        3.19089123570787        0.09092330970728
H           -2.52414207604813        2.45411019647648       -0.92038657495697
H           -2.67392010052397        2.41428879604121        0.84456295481939
H           -1.26924807315906       -3.97904714527765        0.71555524304998
H           -1.13679198554204       -3.84399771563701       -1.05416774481654
H           -2.33315329648094       -2.89227743319031       -0.17823165467805
H            1.40419949070475       -3.24984868337697        0.21117138843304
