25
 energy: -4.349658806620 xtb: 6.6.1 (8d0f1dd)
C            3.23101771433924        1.19809940242168        0.05630621642861
N            2.27322492336846        0.13252919203290       -0.00935528157067
C            2.55438418618646       -1.21737261768963        0.07926779113793
N            1.39290501844250       -1.94897970484389        0.03948980770939
C            0.36008916414069       -1.09144755331826        0.01569887526655
C            0.87834109322782        0.20328360526697        0.02505207699609
C            0.10299376462952        1.36855942254224        0.02537568278474
O            0.50969931187090        2.53393523740669        0.05118405612810
N           -1.28347114317534        1.03869209398123       -0.01297572877386
C           -2.20842732454217        2.16058205142200       -0.04442462265732
C           -1.84099802419200       -0.20876615714057       -0.05947724684490
O           -3.03950719480439       -0.38344625265901       -0.10582257253880
N           -0.97739109143543       -1.33457256864790       -0.02865884452674
C           -1.47801675414493       -2.68904840949078       -0.07513731987018
H            3.70759014043494        1.24721379107696        1.04320676624914
H            3.97813812264874        1.04862183308692       -0.73065722656618
H            2.72604975367083        2.14615388619474       -0.10893152997040
H            3.52741480352354       -1.61929442434473        0.13012840198102
H           -1.63106543131055        3.08421779871384       -0.01750819015349
H           -2.80792723485740        2.12183559660424       -0.95336021604597
H           -2.86964108202719        2.11060014126762        0.81860786754904
H           -1.17497528877456       -3.24335014590562        0.81594466949278
H           -1.13738882984943       -3.21430561734597       -0.96914880838422
H           -2.56083028168421       -2.60999097166912       -0.09669783053107
H            1.36083214339008       -2.95559309448511        0.02984303142848
