25
 energy: 130.832276684266 xtb: 6.6.1 (8d0f1dd)
C            3.38989222198901        1.46610656159106       -0.22422069224750
N            2.65416998740284        0.33458135613175       -0.68327828665166
C            2.02476823779312       -0.71985768184162        0.21178450701448
N            1.25246590403768       -2.11966665594152       -0.09809981049329
C            0.09575130794599       -1.42094683668181        0.07888886132050
C            0.65715199267521       -0.18978093169298        0.35890345649380
C            0.16537160142605        1.11970302080272        0.26386008169443
O            0.73253528822336        2.19021154526522        0.39481299820373
N           -1.25608479772406        1.02148974080657        0.05382889769477
C           -2.02969376251143        2.28700342676141       -0.00056368884687
C           -1.91327589160925       -0.18694133420817       -0.12682663172293
O           -3.09903787885386       -0.26391556639640       -0.31509140439165
N           -1.18886629275939       -1.47927680600973       -0.21363814350110
C           -1.56169710473658       -3.04560860826863       -0.20696514279103
H            3.59885899671800        1.47734569835710        0.88544830431016
H            3.90456861284179        1.26938105609312       -1.25037542596147
H            3.10248334308474        2.53853414512278       -0.30928341565219
H            2.76980263728467       -0.95934377796858        0.98155551417677
H           -1.30823519072651        3.10232135050508        0.06354068543872
H           -2.59702907642907        2.37758964773345       -0.93443364717282
H           -2.73037030551014        2.40279170257381        0.83192516567304
H           -1.23720878080041       -3.62903321825661        0.66791053256562
H           -1.11684460211184       -3.57653333915220       -1.05760414135376
H           -2.62755387749356       -3.03449942739445       -0.26460744680664
H            1.46868412807498       -3.10285773183828        0.10828022388135
