25
 energy: 25.399158547634 xtb: 6.6.1 (8d0f1dd)
C            3.50319632506847        1.85032230684774        0.13226778892023
N            3.51246767526261        0.84021790910191       -0.60904353937984
C            1.52157851085510       -1.10006968150634        0.36525826066600
N            0.94784095199347       -2.32183064439629        0.20719567987225
C           -0.38473521769582       -2.24904439264139        0.03084118660351
C            0.50268679497592       -0.17624941138868        0.24562724595835
C            0.16705095896358        1.21368658856187        0.24298146838052
O            0.86952663412543        2.21060122061526        0.35172690694606
N           -1.21669759715972        1.21555282955731        0.04951754902436
C           -1.99803070930791        2.42615363151910       -0.00442261351659
C           -1.75261668968242       -0.05734559727977       -0.07300477322561
O           -2.91928358792146       -0.36462439434138       -0.23285031016174
N           -0.66529079428525       -0.90898748952721        0.03305893246160
C           -1.34941585915197       -3.35795914149066       -0.16839097801496
H            3.34055180405711        1.69632595295633        1.19252364944223
H            3.62767451682882        1.01282541824552       -1.61109750393528
H            3.67771409108403        2.88414750029876       -0.17198321851901
H            2.58615380527431       -0.93711823344265        0.40969375659750
H           -1.31078802740472        3.26838487433355        0.06948717271342
H           -2.54751743315166        2.48480382160863       -0.94436619968578
H           -2.69831915848760        2.45098638914428        0.83298467309036
H           -1.31577677778176       -4.05368103507665        0.67852475230491
H           -1.18213779538355       -3.91346597525970       -1.09799473311147
H           -2.33873688176267       -2.89185136747120       -0.19803790385742
H            1.41449415324334       -3.21345918285038        0.18972066265016
