25
 energy: 25.865910408938 xtb: 6.6.1 (8d0f1dd)
C            3.49786299922654        1.85836614806911        0.13794521197211
N            3.49441544261114        0.85753089543537       -0.61784366907217
C            1.54154970424993       -1.11807757729787        0.31302954110110
N            0.95295864134665       -2.33728845901202        0.19197025368294
C           -0.39450946333224       -2.27643460795684        0.06092781256191
C            0.51755802005928       -0.20670911519750        0.24230174586216
C            0.16647438086134        1.17987361550018        0.23821339581570
O            0.85778278991594        2.17572218989459        0.38546616116128
N           -1.21444905101819        1.19447429436708        0.05604531262645
C           -1.99314529160986        2.40940065383160       -0.00588551184171
C           -1.75145567918198       -0.07294638623668       -0.07837112652768
O           -2.92817453956257       -0.35242150221433       -0.22542644660694
N           -0.66320427364585       -0.92693258479202        0.02354295779978
C           -1.36078285107624       -3.37188962770257       -0.14538926571682
H            3.30933523998579        1.70742324426043        1.19540482430679
H            3.69290580100391        1.04085793039637       -1.59570993135337
H            3.65867588654713        2.89697933882639       -0.16290129607452
H            2.60216473607649       -0.95239371407250        0.37145604415404
H           -1.31301298138686        3.25926924537125        0.06618848978503
H           -2.55233570777507        2.46035090390392       -0.93949163290068
H           -2.71664969941135        2.45221806883122        0.81153746113294
H           -1.33983707870423       -4.09121626945414        0.68002262732991
H           -1.18784838578903       -3.91795586227897       -1.08960580498721
H           -2.34958431491282       -2.91858802215208       -0.18414523415396
H            1.42592821043641       -3.22401047593962        0.18829989144057
