  25
        -42.06446710
 C          3.3841539545        0.7925354477        0.0431368398
 N          2.3796580707       -0.2376536363        0.0000077939
 C          2.7677840982       -1.5582313079       -0.0090078319
 N          2.0205651875       -2.5688421753       -0.0209140366
 C          0.1278030872       -1.0333367196       -0.0071345951
 C          1.0289373489       -0.0063941331       -0.0001628235
 C          0.3688091478        1.3165514046       -0.0076834962
 O          0.9854575512        2.3656756956       -0.0203713107
 N         -1.0148566524        1.2885464209       -0.0020556767
 C         -1.7228887139        2.5539958307       -0.0015643599
 C         -1.8257997562        0.1439708139       -0.0005156157
 O         -3.0270504055        0.2095165513        0.0063785471
 N         -1.1307898271       -1.0399291665       -0.0075340887
 C         -3.8993215679       -2.6342880732        0.0202915600
 H          3.8946531400        0.7843847904        1.0104048541
 H          4.1254616021        0.6267988541       -0.7409426258
 H          2.9223190725        1.7699825078       -0.0978879641
 H          3.8399941071       -1.7239356686       -0.0053438555
 H         -0.9940249250        3.3639238338        0.0080484565
 H         -2.3542641180        2.6249229563       -0.8898978079
 H         -2.3683497258        2.6147781176        0.8772391977
 H         -3.6052012836       -3.0940598660        0.9437059725
 H         -3.6778670641       -3.1158791217       -0.9120494487
 H         -4.4205168140       -1.6942633302        0.0297147182
 H          0.9798494687       -2.4217202386       -0.0222781059
