25
 energy: 68.798531159384 xtb: 6.6.1 (8d0f1dd)
C            3.25194664723436        1.17260389156507        0.08357724464780
N            2.25839734486936        0.10891439900070        0.06252421586400
C            2.58663356144365       -1.18071502299551        0.09647826012983
N            1.45120174136076       -1.93789691456608        0.04908048503422
C            0.32376295907551       -1.09983090754486       -0.00052759945086
C            0.88703902213230        0.18686344879903       -0.00286325885371
C            0.01523084244772        1.36264315586701       -0.03064697619565
O            0.53038190133497        2.47522079839938        0.09229912152556
N           -1.33206968660416        1.05916912644005       -0.13838036774478
C           -2.17497273902846        2.20844978685076        0.07257526318723
C           -2.16220861409644       -0.22034051090131       -0.97390159566183
O           -3.33531966291907       -0.32666411696989       -1.04447674470736
N           -0.96709210387403       -1.37248896253983       -0.03422382923304
C           -1.42818549202492       -2.71381949770905        0.10545018811405
H            3.75960196324982        1.23705657290113        1.05376978512845
H            4.02505532945714        0.99103911052382       -0.66968985998949
H            2.75753295775462        2.12313428472972       -0.11689639688077
H            3.59229930634488       -1.55257762115455        0.03137505828315
H           -1.56540578307311        3.10803583631312        0.15842362774035
H           -2.82764824143683        2.31616019451609       -0.78346518095536
H           -2.78608819728209        2.08719353324865        0.96532683282309
H           -0.81607835145435       -3.24193443470973        0.85180030713588
H           -1.40689310818642       -3.26203942079501       -0.83728094515371
H           -2.47112580763418       -2.67816917485356        0.42581263827676
H            1.48695880354239       -2.94147231795311        0.06463200701197
