25
 energy: 103.805896894059 xtb: 6.6.1 (8d0f1dd)
C            3.32293533123641        1.19102230040566        0.04186337656299
N            2.37196102697374        0.10547982574843        0.04899980560827
C            2.70887213012688       -1.17485163690051        0.03256818452080
N            1.59872570009923       -1.93463298362138        0.06341789679368
C            0.46214805435754       -1.08613621945145        0.09860259885251
C            1.01290818356431        0.23014060856616        0.09395174898540
C            0.25362960999250        1.49506142067899        0.09857365954111
O            0.82338664515151        2.59849732578097        0.04385294688964
N           -1.04421059040909        1.25951438547520        0.14777767349197
C           -2.02783283430532        2.27299839454006        0.17094931470553
C           -3.80305492976130       -1.17737377324611       -1.36923283481596
O           -4.16250002108471       -0.11655889876611       -1.23111532829004
N           -0.77315136194646       -1.38428540836846        0.10667687129924
C           -1.31080617571084       -2.69938072442244        0.17841678767792
H            3.81317427263538        1.25842051030864        1.01344513508969
H            4.07526301622275        1.02918972290838       -0.73008503055553
H            2.78077101834724        2.12139711811709       -0.14456462634295
H            3.71071786332105       -1.55247075605411       -0.00715183519278
H           -1.60280498228004        3.28257691790870        0.22542339855820
H           -2.65278491149822        2.20162690765730       -0.72412193899902
H           -2.67662682368703        2.09894754814703        1.03619882593836
H           -0.78393078892653       -3.37645609728105        0.86314708587406
H           -1.32035168557048       -3.16352095162678       -0.81079159422628
H           -2.33915184852379       -2.58184903694370        0.51838350720008
H            1.59137067473642       -2.94043404259677        0.05253061424975
