25
 energy: -3.414707682385 xtb: 6.6.1 (8d0f1dd)
C            3.24898984187276        1.17991412148883        0.07738517792099
N            2.30198589850041        0.10967718577554        0.03795942559067
C            2.60262748097802       -1.23731466660899        0.04072051837800
N            1.41215556472867       -1.93312915979427        0.02201022078041
C            0.37080805708289       -1.06378715462646        0.01214197427496
C            0.90778368043177        0.21734302725635        0.03235445364946
C            0.09484266540104        1.35905124398598        0.01476344075814
O            0.48573583260556        2.53276574662873        0.04394551728754
N           -1.30821371448784        1.01989354483777       -0.06620706655572
C           -2.21123447980564        2.15794518128895       -0.02045365847767
C           -1.89698856938291       -0.21053993217867       -0.22876058101334
O           -3.09167338013384       -0.38358391918885       -0.33085852956014
N           -0.98581422920712       -1.29938594760846       -0.05946323321734
C           -1.47203225867456       -2.65631471734449       -0.01775532988327
H            3.73767680334429        1.23297416346319        1.05617842861613
H            4.01797159748575        1.03901959526709       -0.68942694624079
H            2.71017206201601        2.10853063762563       -0.10124346965956
H            3.58848132637977       -1.64483538076228        0.02888512566801
H           -1.63522291268822        3.08219118150234        0.02166675176070
H           -2.82232199073157        2.15059488675749       -0.91559538994634
H           -2.85735578519117        2.07985336452714        0.85282915803508
H           -1.08312657417403       -3.20370433426329        0.84932887871141
H           -1.20698208378295       -3.19664480652094       -0.92510718015786
H           -2.55355752152321       -2.58742185647695        0.05000312664765
H            1.38607226554063       -2.93795754071314        0.01601423271758
