25
 energy: -42.498520201041 xtb: 6.6.1 (8d0f1dd)
C            3.27518210924830        1.40596017710829        0.11864549173737
N            2.51583600845486        0.17674785425193        0.03995369878589
C            2.90363807544705       -1.10280112653948        0.06209053676187
N            1.80234259112376       -1.91292378613315        0.03524548084226
C            0.65532805327233       -1.13560536011818       -0.01261895506379
C            1.14653618847719        0.18228449545526       -0.01928927564615
C            0.27462470965975        1.32302761479200       -0.05896172466580
O            0.60928726638653        2.50392629581588       -0.07943605717602
N           -1.02898600644753        0.93032059854970       -0.06311720645822
C           -2.06521758687524        1.94948134650413       -0.05989755410909
C           -1.49326974278191       -0.39730104766347       -0.02810862044427
O           -2.70617200613800       -0.43616045270748        0.01182710971014
N           -0.63235606485416       -1.46478742737623       -0.02742137555661
C           -2.81751827227659       -2.96415466170987       -0.10970830966285
H            3.90562147509340        1.43018802514275        1.00831149758580
H            3.91587813881818        1.52844797042702       -0.75759080476138
H            2.55251566103625        2.22984898276107        0.17067650393563
H            3.91757402810762       -1.45444660679488        0.10954184828700
H           -1.55953351642613        2.91236949102522       -0.04822809929320
H           -2.69247425989583        1.83812152370883       -0.94492089063509
H           -2.69898017301419        1.83018103812329        0.81991285348873
H           -2.52420894454704       -3.44141400287213        0.79146308610179
H           -2.55513327469444       -3.34911982881065       -1.06252312446446
H           -3.32100776162570       -2.03800740862531       -0.05638741838670
H            1.83310393670944       -2.92176089065868        0.06879664734553
