25
 energy: 69.795186590925 xtb: 6.6.1 (8d0f1dd)
C            3.86960300603032        0.77978399228441        0.19403576798293
N            2.73869117966769       -0.05016567927815        0.04416632376410
C            2.85539883802776       -1.38512853618938       -0.12970633709604
N            1.62456987536877       -1.94669102240651       -0.10463939583691
C            0.64930363050644       -0.97134847495667       -0.01519768248080
C            1.36666795008039        0.29480114840952        0.08384931318313
C            0.79235819493193        1.49299154668769        0.15169185948761
O            0.49745753662504        2.61945552062135        0.41350318593284
N           -2.85429029265986        1.16713666255509       -0.12779909817213
C           -3.43767712796134        2.43185265919076       -0.11003231530878
C           -3.31368941065913        0.07634307439570       -0.15193592410310
O           -3.71959246990929       -1.00185109237429       -0.18375695622079
N           -0.61256693170333       -1.10366965635087        0.01701364174442
C           -1.18405282322961       -2.43973258336854        0.09803053605522
H            3.73160697174037        1.64714593185361        0.82419555798133
H            4.58011042393751        0.13070563503989        0.69850120337081
H            4.29919935567618        1.12713057436534       -0.74564303721851
H            3.76716737981723       -1.91837709765159       -0.18401157586085
H           -2.62478058146481        3.15824507529926        0.05223543397220
H           -3.98362776194440        2.58509139465792       -1.04911604643027
H           -4.16213657267663        2.44231261496783        0.70621547589523
H           -0.71981479164436       -2.91851817819792        0.96758953705002
H           -1.00542163904753       -3.04549680665202       -0.79077521550823
H           -2.26830444345299       -2.43260032944911        0.22189533404870
H            1.44678679717091       -2.92078489398814       -0.23739178056241
