25
 energy: 65.718445232663 xtb: 6.6.1 (8d0f1dd)
C            3.94684708759258        0.75579377316656        0.15812041501962
N            2.83240523032833       -0.10387685663611        0.07727404117265
C            2.95053761163739       -1.43916742728009       -0.08751806575759
N            1.71633036601436       -1.99776222960914       -0.06717758119286
C            0.74036206612043       -1.01646092098979        0.00612260337791
C            1.46477434767988        0.24516041167527        0.09787045048650
C            0.91813157503416        1.45408480656131        0.13336621770694
O            0.62630581220731        2.58513078146792        0.37347355520231
N           -3.07475066645923        1.20441273031913       -0.13482804449200
C           -3.57426978372580        2.50662952200588       -0.11484621164574
C           -3.50820701030337        0.10645017991537       -0.16205708122535
O           -3.83722968613815       -1.00053092971838       -0.19025229132897
N           -0.52216716816942       -1.12330890842151        0.02552573115121
C           -1.13707616003127       -2.42901282195517        0.05525184694302
H            3.84936360417100        1.53883852706756        0.90550049016733
H            4.76950147791197        0.11759553922285        0.49017145413366
H            4.26303700265205        1.14953024523044       -0.81507274643830
H            3.86762381881398       -1.96863142643414       -0.16163217787734
H           -2.72702275457542        3.18995163902616        0.02955006536935
H           -4.11670414323422        2.69975515874837       -1.04724491798931
H           -4.27649833005302        2.58275422678280        0.71795078219910
H           -0.73435159097703       -2.94874524527621        0.92858733405474
H           -0.94352990214220       -3.01221023642262       -0.84322983112811
H           -2.22259082351032       -2.39060099701956        0.13741221269166
H            1.54504263261352       -2.97467895667931       -0.19200956077489
