25
 energy: 60.244600388451 xtb: 6.6.1 (8d0f1dd)
C            4.05803647587041        0.76539417698514        0.11469675965260
N            2.98152957048270       -0.16123711609708        0.07966873737479
C            3.10465479973938       -1.50440093524926       -0.04566470523042
N            1.86560754007327       -2.06586548616711       -0.04260962848174
C            0.87848069715473       -1.09397507354173        0.02903015622719
C            1.61270381236183        0.16946842540836        0.10558001158409
C            1.10778165641569        1.38446677402707        0.16097268104364
O            0.70822295039835        2.48846579930160        0.31368318945137
N           -3.39674805055374        1.28042178902765       -0.14466948007165
C           -3.74980869091269        2.63915247884019       -0.12643836820229
C           -3.78599583328530        0.16366652045007       -0.17085360292199
O           -4.01643290101112       -0.97328652906534       -0.19774956690841
N           -0.38521462586035       -1.19196074263752        0.04717400389068
C           -1.04924187064119       -2.46186377083579        0.01260069885380
H            4.04137878455559        1.35529978234299        1.03315095686437
H            4.99503162467713        0.20359308176633        0.11150664433338
H            4.06253107642626        1.43625956601748       -0.75172104641975
H            4.02920064485931       -2.02571332282642       -0.12175263901628
H           -2.85435029467954        3.26068346697552       -0.03506792371466
H           -4.28609016110305        2.89678303370535       -1.04464044725442
H           -4.39959012101987        2.82748801020913        0.72864991794878
H           -0.75193174977765       -3.06701109709089        0.87330807888313
H           -0.82496638809272       -3.00425738853032       -0.90464424392380
H           -2.12764039897603       -2.31534920570173        0.04353209748520
H            1.70393227540618       -3.04999511787210       -0.13548124873822
