  72
        -99.38864156
 N         -1.1988057393        2.3642020403        2.2110549294
 C         -1.5026261939        1.5713509368        1.2918798072
 C         -2.7618179207        1.6787927725        0.4771952412
 C         -3.4265894113        0.3159029487        0.4006661632
 C         -4.3699340728        0.0326549229       -0.5859479154
 C         -5.0335108251       -1.1847027755       -0.6252332251
 O         -5.9582022053       -1.5406786958       -1.5360746303
 C         -6.3537481571       -0.6194254438       -2.5250659973
 C         -4.7515295242       -2.1707002343        0.3623700913
 O         -5.4434281019       -3.3176225595        0.2497314174
 C         -5.2661071364       -4.3280253566        1.2156605947
 C         -3.8174923623       -1.8779869452        1.3461029051
 C         -3.1711875764       -0.6523487028        1.3653510387
 C         -2.3005561767        2.1616669841       -0.9232863782
 C         -1.4589570009        1.1670135823       -1.7367109566
 C          0.0655082090        1.3350206811       -1.5872972173
 N          0.6406326737        0.4235914951       -0.6130828833
 C          1.7711403164        0.9493133102        0.1467827763
 C          2.9722507411        1.2780609361       -0.6771254103
 C          4.2268772442        0.6999298871       -0.6077366109
 C          5.2808995527        1.2492063644       -1.3920444331
 C          6.5608339931        0.7651249547       -1.3196017244
 C          6.8730633397       -0.3135508202       -0.4864552021
 O          8.0800135234       -0.8604187574       -0.3325142793
 C          9.1924150290       -0.3194648207       -1.0119227751
 C          5.8254480494       -0.9166982538        0.2836344851
 O          6.2229568698       -1.9671406517        1.0276996291
 C          5.2769929836       -2.6576106986        1.8094963755
 C          4.5502054130       -0.4115028360        0.2228984763
 C          0.8722312509       -0.9071255724       -1.1261249929
 C         -3.8084007775        2.6756839392        1.0620628830
 C         -4.2244203121        2.2844668715        2.4784285754
 C         -3.3398545661        4.1284618527        1.0596996255
 H         -4.5970369804        0.7758164600       -1.3319494694
 H         -6.7839604925        0.2836657859       -2.0818827330
 H         -7.1153836444       -1.1305870692       -3.1108957699
 H         -5.5184505161       -0.3466927930       -3.1775742819
 H         -5.5142460737       -3.9705834170        2.2193293589
 H         -5.9534069595       -5.1241092333        0.9359005742
 H         -4.2420247038       -4.7138350238        1.2077252205
 H         -3.5932565404       -2.5996272549        2.1147195051
 H         -2.4735843776       -0.4492274502        2.1630734819
 H         -3.1934662896        2.4155396998       -1.4943445350
 H         -1.7349438397        3.0843267350       -0.7947531485
 H         -1.7417367738        0.1463487031       -1.4777757762
 H         -1.7009948711        1.3134221333       -2.7907023975
 H         -0.8532834129        0.7562901606        0.9444600610
 H          0.2820027092        2.3584679057       -1.2744363748
 H          2.0081091344        0.2193525777        0.9228276198
 H          1.4276391908        1.8692741959        0.6367463514
 H          2.8339989145        2.0789900733       -1.3898492815
 H          0.5373573625        1.1796807458       -2.5682388224
 H          5.0620444352        2.0837290183       -2.0396983838
 H          7.3342846611        1.2236341320       -1.9143851913
 H          9.3542223059        0.7271137946       -0.7383988515
 H          9.0776577037       -0.4025644608       -2.0962600496
 H         10.0460140519       -0.9142316758       -0.6916977318
 H          5.8309071604       -3.4571732818        2.2974248986
 H          4.8333606766       -2.0078751787        2.5707718352
 H          4.4863995830       -3.0910556885        1.1882174684
 H          3.7698414794       -0.8700517751        0.8065064177
 H          1.7085207811       -0.9407853350       -1.8372171806
 H         -0.0233256007       -1.2635389110       -1.6314414989
 H          1.0929345735       -1.5806327530       -0.2986712605
 H         -4.6930930137        2.6000788436        0.4177484827
 H         -3.3883785899        2.4127636683        3.1601393764
 H         -4.5635567914        1.2522298588        2.5223700865
 H         -5.0382972849        2.9238093230        2.8103542086
 H         -2.4086986042        4.2208236049        1.6109880426
 H         -3.2048524536        4.5132171435        0.0529586337
 H         -4.0892716293        4.7440611510        1.5508389459
 H         -0.3088398148        2.2358292760        2.6818376316
