72
 energy: -99.252400346768 gnorm: 0.002942304928 xtb: 6.6.1 (8d0f1dd)
N           -1.86675247615798        2.80667908164467        2.21243124044301
C           -1.84210204497764        2.05366550409736        1.21830529845413
C           -2.99368382427207        1.84880102446900        0.27260419079729
C           -3.47425028482610        0.40793334644361        0.37016351955134
C           -4.40629565809467       -0.07671392706701       -0.54938343107600
C           -4.87786306083439       -1.37802091705825       -0.48444042875729
O           -5.78055930597200       -1.92262196118102       -1.32232728827678
C           -6.39033033107258       -1.11809178555411       -2.30441416221860
C           -4.39395185959356       -2.24908210605963        0.53195514666460
O           -4.89432713383304       -3.49663082311631        0.50931553896881
C           -4.50009166218791       -4.41676928136368        1.50157591235235
C           -3.47389203321208       -1.75742018868628        1.44593827087441
C           -3.02544597600606       -0.44653956643493        1.36727580261460
C           -2.43546870470040        2.12134564646085       -1.14896254150379
C           -1.48165106940576        1.03648346361658       -1.67146129086085
C           -0.13151937133001        1.09323302566530       -1.06691795405590
N            0.63300590647159        0.06131482894844       -0.79164493692737
C            2.01068602319590        0.25370544956840       -0.40899946466004
C            2.96187694209744        0.11198148100966       -1.60821393893019
C            4.37976058041517        0.17560589530603       -1.11625596561752
C            5.20479463715176        1.28131839797567       -1.33651624984954
C            6.48959617845667        1.32548310558632       -0.81903086830418
C            7.00385797573209        0.27739237007160       -0.06535007419820
O            8.22016075919727        0.22090410298621        0.49587659714308
C            9.09643257474509        1.31789128506725        0.36089341682326
C            6.17864986113690       -0.87609706536523        0.15244922995473
O            6.69206445168481       -1.88427917357679        0.86514621288311
C            5.86431873074831       -3.02054377065609        0.99595654268348
C            4.91906350397232       -0.84332015506504       -0.38001427006589
C            0.17132115927910       -1.30259653362466       -0.87646088727238
C           -4.20028228482541        2.79252160140061        0.55578709851249
C           -4.83294148746689        2.49775874178671        1.91341188617896
C           -3.84324463225549        4.27355994939639        0.46504427398100
H           -4.77892975930901        0.57660651126693       -1.32076107610891
H           -6.91796501032286       -0.27059443798854       -1.85677210616021
H           -7.10774067121456       -1.76443355768395       -2.80614229880920
H           -5.66178299513644       -0.75318065325396       -3.03555303998157
H           -4.78007208492021       -4.07156409313890        2.50100094385802
H           -5.03472822997166       -5.33685911076688        1.27432125763253
H           -3.42273394627620       -4.60541467999400        1.46806425473377
H           -3.10409170567773       -2.38723283235297        2.23831764216505
H           -2.33157797921425       -0.09523987005604        2.11473729851807
H           -3.27306395716526        2.20169691780255       -1.84088146198974
H           -1.91849033944201        3.08157437963143       -1.14661726894678
H           -1.93821058918683        0.05378807596642       -1.55663197719813
H           -1.35190850239120        1.21153876007432       -2.74784135174234
H           -0.94720071167020        1.48322364815242        0.90123037483036
H            0.32774917350489        2.06889976904831       -0.98096703182067
H            2.27602709505150       -0.52657010163634        0.33318669768905
H            2.13718008929900        1.23901946680987        0.04401578958200
H            2.77129806351803        0.90607673446383       -2.33251068324193
H            2.79318004973628       -0.85421406929759       -2.08755403130367
H            4.83763048139626        2.11027670430897       -1.92255297795889
H            7.09536112193752        2.19624894073926       -1.01242137970938
H            8.66750454302345        2.22578791858628        0.79492386457419
H            9.35246473435745        1.49758450664949       -0.68713434961832
H            9.99437825332795        1.04313407904189        0.91054135053451
H            6.37186133468152       -3.69526859502783        1.68181934423255
H            4.88026808914554       -2.74381262789545        1.38981111364246
H            5.72814217260798       -3.50907591732880        0.02561645672591
H            2.34042580031428       -2.10966711272392        1.05253879878358
H            0.17989239373364       -1.66157283745739       -1.90881097300077
H           -0.84216895383913       -1.38988682037178       -0.47924063955838
H            0.83800176021681       -1.93152894636127       -0.27592919658217
H           -4.94781020602472        2.57833913573757       -0.21670129825472
H           -4.12812997291145        2.71908589142842        2.70869666809619
H           -5.13588355454453        1.45624385050932        1.98914233408647
H           -5.71291206104382        3.12114947745773        2.04832682161053
H           -3.07979947934865        4.52343109153943        1.19541484801152
H           -3.49670172722059        4.54996973800643       -0.52721723532814
H           -4.72770811161755        4.86616880629443        0.68348820980107
H           -1.02617509363769        2.89156033562421        2.77457472449575
