25
 energy: 0.000000000000 xtb: 6.6.1 (8d0f1dd)
C            3.23720132972391        1.16630909158653        0.08434468864950
N            2.29877796055224        0.07527476373246        0.03981602671198
C            2.58028186251803       -1.21425391179017        0.03006175752192
N            1.43813944744728       -1.93419254010258        0.00098261751768
C            0.39035684826767       -1.05887462812143       -0.00790371763344
C            0.93510047688824        0.21347817468824        0.01709077332874
C            0.09450143016486        1.40504290868848       -0.00410946993748
O            0.49712746915594        2.54126690785742       -0.00342325656480
N           -1.25076628431515        1.06271869620815       -0.03085477937476
C           -2.21907191394203        2.15522079838987       -0.05001256521996
C           -1.81739470187490       -0.20012724136556       -0.04692818139228
O           -2.99983858926755       -0.37846413507442       -0.07008877579474
N           -0.92618577614240       -1.30210203518959       -0.03682761236648
C           -1.46982251276835       -2.64643077634382       -0.06029819901142
H            3.71247229913541        1.21471443890471        1.06488839270555
H            4.00791460421487        1.03430799217987       -0.67357688121503
H            2.69909982127087        2.09770098766290       -0.09130154035862
H            3.56654087521359       -1.63682977417947        0.04233139674524
H           -1.67107945562430        3.09322822573871       -0.02552706696334
H           -2.82428927394145        2.09428605349656       -0.95318074103337
H           -2.87644002486466        2.07745706351925        0.81450059976605
H           -1.17061985538665       -3.19584861009707        0.83242224714061
H           -1.14560246782873       -3.17511580834413       -0.95688266944647
H           -2.55549768731684       -2.55659960601237       -0.07459039105944
H            1.38130842369251       -2.94313824728853       -0.01389874052104
25
 energy: -0.100852437768 xtb: 6.6.1 (8d0f1dd)
C            3.23271783648256        1.18021740851891        0.08600635125768
N            2.29476173626473        0.08958536540482        0.03776257785703
C            2.58836780611083       -1.24366387996698        0.03038521338982
N            1.44166828304692       -2.00768993426410        0.00010798678800
C            0.40401693228844       -1.08546971332447       -0.00835890806421
C            0.92121856010115        0.21203530315904        0.01516287692267
C            0.09556350289398        1.40252721177918       -0.00457568592568
O            0.49165970054357        2.56986090213175       -0.00327736614751
N           -1.26730672487017        1.06828172842270       -0.03083316739060
C           -2.23334453738433        2.16578224383506       -0.05009936615017
C           -1.82196344014102       -0.18621932609439       -0.04708536897620
O           -3.01887243187144       -0.36654792463857       -0.07052897237162
N           -0.93248060639257       -1.29415703579233       -0.03676106578159
C           -1.46960576123928       -2.62875867557389       -0.05976428923709
H            3.71555348570210        1.23072510151803        1.06615355849679
H            4.00418430032816        1.04691763572583       -0.67429041717379
H            2.70354939144908        2.11687120989973       -0.08955746620107
H            3.57133452473925       -1.64368389695400        0.04355857980697
H           -1.68468675591429        3.10538986489633       -0.02548906566822
H           -2.84195617830455        2.11232933118182       -0.95292117243494
H           -2.89495858700416        2.09543861495331        0.81326420598174
H           -1.15200679102111       -3.16983220986167        0.83265382151922
H           -1.12760542138925       -3.14900602959858       -0.95560973348343
H           -2.55443968126540       -2.54182135938674       -0.07375483625505
H            1.44684516181929       -3.09008314722681       -0.01511437856421
25
 energy: 11.868021786950 xtb: 6.6.1 (8d0f1dd)
C            3.22737441862457        1.18590745259086        0.08701719432745
N            2.28746065277197        0.09637991296031        0.03445309339699
C            2.58782030625489       -1.26601500699363        0.03141734967815
N            1.44229465423029       -2.07786079274833       -0.00038697965076
C            0.41529546686871       -1.11431512658271       -0.00903223420885
C            0.90504492062710        0.20134693268618        0.01284802279541
C            0.09528603899970        1.38936998547620       -0.00484863565104
O            0.48024750279677        2.57012836900819       -0.00269989567912
N           -1.28790480763518        1.08095593835888       -0.03073001646397
C           -2.24925458246385        2.18377578671336       -0.05023813735175
C           -1.82412834516015       -0.16598758318976       -0.04709254100891
O           -3.02579890181640       -0.35448965046257       -0.07100651651409
N           -0.93962509902252       -1.27600693926019       -0.03648794875040
C           -1.46898631683711       -2.60547025476045       -0.05911900036992
H            3.71585045939739        1.24337812320668        1.06639227441125
H            4.00024819575256        1.05882889797108       -0.67522956817432
H            2.70551604787328        2.12855923255246       -0.08733248959417
H            3.57493863915971       -1.63726281236083        0.04527153584100
H           -1.70054755220536        3.12448610596681       -0.02524891653635
H           -2.86102300421449        2.13468713477782       -0.95245075268466
H           -2.91514972496027        2.11754866513335        0.81143381506713
H           -1.13303347190094       -3.14001417510236        0.83174054454528
H           -1.10959376562792       -3.11916951649274       -0.95313237402389
H           -2.55336304933523       -2.53098572809694       -0.07273711873900
H            1.54324562279498       -3.23874616260764       -0.01576679246688
25
 energy: 21.410854256540 xtb: 6.6.1 (8d0f1dd)
C            3.22542409255579        1.18604394718479        0.08717150208179
N            2.28574570044963        0.09642915305383        0.03231122148045
C            2.58401854528728       -1.27491487997905        0.03235645998683
N            1.43990824832055       -2.10472731563644       -0.00034427183533
C            0.41869378320640       -1.12495932333353       -0.00942743421312
C            0.89965388824397        0.19467605605411        0.01189518943992
C            0.09519666732123        1.38422959377063       -0.00468509462887
O            0.47502819049979        2.56494945640294       -0.00221310270179
N           -1.29821487634950        1.09242814558101       -0.03063409134356
C           -2.25791490183637        2.19533020544203       -0.05042065629480
C           -1.82623726187273       -0.15513569661024       -0.04708301805409
O           -3.02704582292266       -0.35280735387216       -0.07140001943010
N           -0.94213260999938       -1.26208188771139       -0.03612272170347
C           -1.46735438078255       -2.59361029057984       -0.05866438751442
H            3.71384629691318        1.24690969015461        1.06656423083726
H            3.99824785534277        1.06396512932327       -0.67592827924483
H            2.70470041249325        2.13093843506493       -0.08629912892089
H            3.57723033999855       -1.63173874309814        0.04571278809284
H           -1.71091433176354        3.13671609713239       -0.02504190657728
H           -2.87041447422316        2.14581736537757       -0.95247465915892
H           -2.92533701412543        2.12838784448081        0.81038460485348
H           -1.12296995217666       -3.12447269843194        0.83133315425475
H           -1.10020313664899       -3.10364478565661       -0.95179035781408
H           -2.55193009796710       -2.53016824906229       -0.07204785685792
H            1.59518914500815       -3.31953110630725       -0.01611825253933
25
 energy: 27.747806201288 xtb: 6.6.1 (8d0f1dd)
C            3.22606548055449        1.18611528804291        0.08724121959113
N            2.28683250711278        0.09653182978364        0.03113825008751
C            2.57963278109878       -1.27660191095051        0.03346723539551
N            1.43534213582671       -2.10826341705618        0.00007811918228
C            0.41779909145574       -1.12457349234268       -0.00957532956618
C            0.89929190484326        0.19386213495109        0.01172181918769
C            0.09525983871925        1.38514779895824       -0.00459689754419
O            0.47221122967718        2.56368683718716       -0.00202587915124
N           -1.30177237607406        1.09897424336757       -0.03060613915628
C           -2.26115063302688        2.19971960026481       -0.05053435202985
C           -1.82852572924446       -0.15084531978033       -0.04708418960408
O           -3.02767903690088       -0.35387085386520       -0.07158056354125
N           -0.94332124884136       -1.25348026143962       -0.03577914283721
C           -1.46599151814112       -2.58899987037148       -0.05844478304655
H            3.71332264768125        1.24784497016023        1.06681617795425
H            3.99851061489095        1.06580776968921       -0.67597560110967
H            2.70509287502260        2.13162209714027       -0.08620315269798
H            3.57584815332870       -1.62787493683980        0.04507421632797
H           -1.71553427662313        3.14144726953738       -0.02498844771329
H           -2.87334287452209        2.14861769243757       -0.95279269895757
H           -2.92854007063543        2.13102641484141        0.81025383358045
H           -1.11883253160582       -3.11799693852657        0.83119743255415
H           -1.09628246169981       -3.09710320193708       -0.95128019040757
H           -2.55057102376282       -2.53162497532859       -0.07180555999087
H            1.61854882583865       -3.37013997917936       -0.01668146431258
25
 energy: 35.825663131199 xtb: 6.6.1 (8d0f1dd)
C            3.22787130328905        1.18776712457453        0.08718572933511
N            2.28965088144971        0.09809717471276        0.02976076916272
C            2.57275904419392       -1.27467118267328        0.03669258394702
N            1.42717291648485       -2.09889865529611        0.00195118473592
C            0.41388533007180       -1.11767891695451       -0.00996456050274
C            0.90079297965034        0.19721162714967        0.01193505951722
C            0.09515087920887        1.39005318856686       -0.00445391971533
O            0.46856627234227        2.56573307334450       -0.00210293698142
N           -1.30358619931145        1.10499383349411       -0.03053299712718
C           -2.26303732460298        2.20233350921965       -0.05057967399796
C           -1.83225726332027       -0.14783217641095       -0.04708785861859
O           -3.02910463213150       -0.35433227473069       -0.07162169937376
N           -0.94526258314027       -1.24387876818061       -0.03553107320136
C           -1.46453004545104       -2.58539699308477       -0.05839566974334
H            3.71340978329954        1.24954143718020        1.06707327481976
H            3.99997197668513        1.06793126859364       -0.67570797283077
H            2.70645293387068        2.13347139855109       -0.08677987482289
H            3.57143990778464       -1.62247433009697        0.04312774435766
H           -1.71959426683113        3.14486153166568       -0.02495906404531
H           -2.87501927857619        2.14976144345259       -0.95299622653984
H           -2.93027152853127        2.13203462811141        0.81032347524207
H           -1.11526308839267       -3.11193804722394        0.83106673972999
H           -1.09279539178967       -3.09098169494626       -0.95108842521755
H           -2.54892959219037       -2.53284561180584       -0.07178676307826
H            1.64474129091047       -3.45383379846877       -0.01849393285667
25
 energy: 32.940761756713 xtb: 6.6.1 (8d0f1dd)
C            3.23136948223176        1.19311923354764        0.08679731031026
N            2.29073654145969        0.10775503777747        0.02662315378580
C            2.54406684709817       -1.26420039162461        0.04503556451782
N            1.40238134451040       -2.07456185076889        0.00943668907396
C            0.40399777701458       -1.09665734331951       -0.01118198840958
C            0.89893689402752        0.21222060308029        0.01261849182310
C            0.09470996863734        1.40534431459169       -0.00358766272743
O            0.45523012113195        2.57381914159115       -0.00277602744519
N           -1.31060321587285        1.12498430518949       -0.03021417411472
C           -2.26885868749709        2.21272390909504       -0.05072868114198
C           -1.83980720431451       -0.13655052746030       -0.04710048854124
O           -3.03120046774354       -0.35253586456716       -0.07167793220706
N           -0.95161895782195       -1.21339609818788       -0.03528014350583
C           -1.46148091813512       -2.57219747801997       -0.05820302590163
H            3.71304794069072        1.25268038249898        1.06714741263014
H            4.00138655536655        1.07173728436709       -0.67598871604252
H            2.71175586287348        2.14146563027428       -0.08768238016936
H            3.55156300227961       -1.60205915615601        0.03935547195230
H           -1.72848432504616        3.15571454365085       -0.02489979340745
H           -2.87975218394911        2.15539843766798       -0.95381503862943
H           -2.93525715546207        2.13744742010533        0.81067942319496
H           -1.10589492616454       -3.09504978461643        0.82894599787560
H           -1.08379801651542       -3.07439517965960       -0.94850672138365
H           -2.54559875492234       -2.53418673704094       -0.07161297725414
H            1.75538678109540       -3.73959104327197       -0.02634985208819
25
 energy: 25.016783416310 xtb: 6.6.1 (8d0f1dd)
C            3.23314315332379        1.19660922045576        0.08700440961626
N            2.28507385993682        0.11525988784632        0.02683013010700
C            2.49797717927792       -1.24397577225940        0.04576267760171
N            1.37578437819707       -2.02362908634667        0.01376328135210
C            0.39369361242759       -1.06103843254765       -0.01058677322303
C            0.89835405552389        0.23765510872269        0.01325889366087
C            0.09113664600355        1.43028786329115       -0.00407587277066
O            0.44062950583632        2.58481052647325       -0.00289177077961
N           -1.31020835918867        1.14532461843743       -0.03026131731930
C           -2.27179873164075        2.22178038003020       -0.05095452360012
C           -1.84297093465620       -0.13047530984594       -0.04696996012034
O           -3.02973202941795       -0.34707682641806       -0.07175665095593
N           -0.95378612515752       -1.18563289644560       -0.03385585474129
C           -1.45751641472274       -2.56134702537046       -0.05769336159861
H            3.71185044080280        1.25307780856378        1.06661815930624
H            4.00071601139571        1.07218285790337       -0.67556829189149
H            2.71810899601735        2.14889215987314       -0.08807954759148
H            3.51609496583791       -1.58340123158633        0.03782385720557
H           -1.73650354576895        3.16637585209857       -0.02514740087244
H           -2.88219510870457        2.15919867259268       -0.95409364737167
H           -2.93776519282017        2.14120302590004        0.81044315261398
H           -1.09666128858967       -3.08186666247703        0.82603634177028
H           -1.07476660619920       -3.06116216271647       -0.94467137055955
H           -2.54183873497447       -2.53400027205611       -0.07132669529983
H            1.88539457223256       -4.07002351537462       -0.03257395234411
25
 energy: 20.701975733271 xtb: 6.6.1 (8d0f1dd)
C            3.23201247411721        1.20122312897093        0.08737784550239
N            2.27160731594318        0.12403079513741        0.03311593056338
C            2.46190389815555       -1.21141032951855        0.03405134482608
N            1.36268180129235       -1.94261037430812        0.00859440643733
C            0.38722850636694       -1.01093348193270       -0.00656693548570
C            0.89870826175412        0.27920509600704        0.01285882084724
C            0.08058798050297        1.46287298283437       -0.00642071397227
O            0.43413047990552        2.61484472849396       -0.00197228888201
N           -1.29763688577521        1.14707067511497       -0.03082393811696
C           -2.26890892517317        2.22086797328633       -0.05097187300425
C           -1.83922159840624       -0.13720271423712       -0.04669717770822
O           -3.03056694232143       -0.32880397375350       -0.07178342997395
N           -0.95212951454804       -1.18635767613593       -0.03143840854807
C           -1.45475124754472       -2.56213489678276       -0.05709821106034
H            3.71162642118393        1.25013106815995        1.06602723142883
H            3.99884057711115        1.06659878541880       -0.67481841810978
H            2.72333429850189        2.15451634555424       -0.08838146053724
H            3.47742952359319       -1.58124537708718        0.04363382970793
H           -1.73743316503741        3.16861546569469       -0.02556447740835
H           -2.87953080085520        2.15686612971297       -0.95345000509919
H           -2.93451002907196        2.13905679669306        0.81013759658182
H           -1.09611578073602       -3.08450619268346        0.82593367666581
H           -1.07373988352524       -3.06261337576907       -0.94388246214534
H           -2.53948443987162       -2.52757207536585       -0.07120834659348
H            1.97615197941074       -4.36148071476044       -0.03361862372109
25
 energy: 20.074602369809 xtb: 6.6.1 (8d0f1dd)
C            3.23521008383330        1.21633597179558        0.08557935299841
N            2.26613432236972        0.14548013579524        0.03748346311419
C            2.45617359465132       -1.18335350162895        0.03106583739039
N            1.35275635196778       -1.89116739679852        0.00599772159426
C            0.37895012548726       -0.96823292424793       -0.00507962644559
C            0.89810057006936        0.31826112821975        0.01479849634951
C            0.06705266201024        1.48901461656704       -0.00390422130635
O            0.42829142241582        2.64632053838909       -0.00130587095510
N           -1.29164154361596        1.14769135485444       -0.03023230672305
C           -2.27044984738302        2.22123916202515       -0.05089425627182
C           -1.83901998421288       -0.13791053569919       -0.04691969050791
O           -3.03619083130640       -0.30644826390316       -0.07227865117991
N           -0.95816007097491       -1.18917489090811       -0.03272640082067
C           -1.45276655299409       -2.55938279240688       -0.05780223637091
H            3.71459439841454        1.25515541250614        1.06542837212655
H            4.00145472150451        1.06751525208940       -0.67558721296097
H            2.73060845834584        2.16815840453132       -0.09080577994879
H            3.46177146814136       -1.57952851901562        0.04621482748801
H           -1.73817142465847        3.16929822788638       -0.02529144016271
H           -2.87877352186082        2.15406018926181       -0.95389239359466
H           -2.93360000354989        2.13598683392955        0.81086725321705
H           -1.09681056502799       -3.08596327867730        0.82534071530446
H           -1.07423934447169       -3.06385591424758       -0.94465922182606
H           -2.53825055027917       -2.52156621046233       -0.07180154083964
H            2.02919036609673       -4.65890421111130       -0.03256127747415
25
 energy: 19.982047604874 xtb: 6.6.1 (8d0f1dd)
C            3.23779017630274        1.22944908454738        0.08639098087322
N            2.26365805431354        0.16616336404752        0.03987522148729
C            2.46464139206028       -1.16439898717404        0.03025311338623
N            1.35010544199898       -1.86927559099430        0.00366546749077
C            0.37520554496907       -0.94546575651653       -0.00510429217050
C            0.89749297842221        0.33958761931631        0.01608813242999
C            0.05834785944744        1.50212290449522       -0.00413514351721
O            0.42595522586011        2.66184948220095       -0.00276118513612
N           -1.29060007173197        1.14882524603019       -0.03049159674790
C           -2.27306296211628        2.22273034081690       -0.05096303599936
C           -1.83792591726099       -0.13585633481105       -0.04672255971289
O           -3.03737649675531       -0.29663715694377       -0.07135397010750
N           -0.95984031204353       -1.19147459302706       -0.03423467703615
C           -1.44894749029702       -2.55567211996361       -0.05769394845828
H            3.71809969699304        1.26108519119985        1.06659086662604
H            4.00232007108102        1.07049245974003       -0.67466084127758
H            2.73638542914162        2.18082362847798       -0.09005496358843
H            3.45890038216825       -1.57620961304531        0.04444348148111
H           -1.73843556410739        3.16949283458396       -0.02602663461130
H           -2.87977068210779        2.15323114262608       -0.95393226376827
H           -2.93403714701880        2.13587601650185        0.81136628604488
H           -1.09702508936973       -3.08699603146346        0.82561438819777
H           -1.07440438023285       -3.06565143638540       -0.94434830185884
H           -2.53547820838661       -2.51720522010877       -0.07158433260051
H            2.03021637364245       -4.84785768540687       -0.03318627923196
25
 energy: 19.937283897758 xtb: 6.6.1 (8d0f1dd)
C            3.23874349986758        1.23340996400670        0.08592743368952
N            2.26208440244158        0.17514079340471        0.03993019152694
C            2.47219251787217       -1.15548280697100        0.03083265817580
N            1.35633118532099       -1.86284236807902        0.00322409116791
C            0.37674876247201       -0.94179148543183       -0.00527910729175
C            0.89732891751397        0.34349089362537        0.01702859736579
C            0.05601466321490        1.50439552514826       -0.00320778472734
O            0.42587717192935        2.66430211934147       -0.00212225336102
N           -1.29098023636008        1.14849930783669       -0.03027065925441
C           -2.27395707010727        2.22279555477471       -0.05088902181610
C           -1.83632488665443       -0.13511614661894       -0.04678599547934
O           -3.03573881091166       -0.29770731926062       -0.07147185260831
N           -0.95719226339069       -1.19372444503488       -0.03497410268412
C           -1.44697235135417       -2.55452168706375       -0.05798662687053
H            3.71941824854417        1.26291016785121        1.06603271224947
H            4.00245142251572        1.07083676399794       -0.67513247314906
H            2.73929751879169        2.18533834792583       -0.09080753323749
H            3.46061560288834       -1.57377551135874        0.04519357214591
H           -1.73810350048566        3.16881743933629       -0.02564319271071
H           -2.87981334521079        2.15328097358437       -0.95408802552333
H           -2.93450973652500        2.13561773008458        0.81136353751672
H           -1.09740765848865       -3.08816057926426        0.82545067022862
H           -1.07454776621506       -3.06691596351344       -0.94475312859766
H           -2.53427053880928       -2.51571467003261       -0.07194846781261
H            2.00492855611277       -4.89405380954501       -0.03258932674834
25
 energy: 19.875977594339 xtb: 6.6.1 (8d0f1dd)
C            3.23979178930477        1.23773876551716        0.08680725267685
N            2.26071984813129        0.18545382364504        0.03958029212411
C            2.48407605468557       -1.14423117165716        0.03073766148019
N            1.37174744387149       -1.85826852832848        0.00232462110831
C            0.38135254388327       -0.94426734698202       -0.00568240189571
C            0.89728335948648        0.34326370889303        0.01732519038006
C            0.05534932064841        1.50399213481504       -0.00386104491921
O            0.42666011855053        2.66393713906319       -0.00292870576859
N           -1.29150609133178        1.14728092345304       -0.03063399373541
C           -2.27430430670841        2.22217717127674       -0.05101771840513
C           -1.83359791961876       -0.13426374924619       -0.04661967885178
O           -3.03257225336587       -0.30176997753564       -0.07084500193258
N           -0.95224296058118       -1.19724702444372       -0.03538849088245
C           -1.44536546062897       -2.55423498265538       -0.05770843782541
H            3.72044644803879        1.26497847555523        1.06698383443258
H            4.00282855619206        1.07270292473253       -0.67424282121498
H            2.74256214565581        2.19073409527584       -0.08975800303191
H            3.46615461420685       -1.56986416586010        0.04397360699829
H           -1.73759094254496        3.16776588428200       -0.02608633217724
H           -2.88008799245449        2.15280230060057       -0.95405161123001
H           -2.93419552830974        2.13539257388552        0.81154025283673
H           -1.09801089082475       -3.08993583720343        0.82594330635390
H           -1.07535587069375       -3.06904856314385       -0.94467355837075
H           -2.53339390317474       -2.51470791560287       -0.07156044325189
H            1.95146618255454       -4.92135186959205       -0.03312386270338
25
 energy: 19.816911653687 xtb: 6.6.1 (8d0f1dd)
C            3.24045102477656        1.23978952378512        0.08606536380371
N            2.26117964987794        0.18925495927529        0.03916296739521
C            2.49030203648982       -1.13896804789636        0.03189111611026
N            1.38460929408100       -1.85851739269045        0.00317121499528
C            0.38543919296179       -0.95062266754204       -0.00540391039035
C            0.89720748030512        0.33983382269578        0.01789338696427
C            0.05674445071464        1.50163984447446       -0.00288616814305
O            0.42705089338238        2.66174955859766       -0.00179550508783
N           -1.29175393413418        1.14626444074293       -0.03027302293340
C           -2.27399885382849        2.22134321685504       -0.05085668991208
C           -1.83187170733881       -0.13416144451786       -0.04674914545593
O           -3.03048168483789       -0.30521122588853       -0.07143254839642
N           -0.94914908922638       -1.19872565176754       -0.03532500169935
C           -1.44506007953135       -2.55512256766520       -0.05817525347302
H            3.72114398828443        1.26676739518961        1.06617847490499
H            4.00299611599079        1.07346418030059       -0.67527451872116
H            2.74377729885204        2.19306648596422       -0.09103092365927
H            3.47104518988658       -1.56706008406380        0.04493615737716
H           -1.73744323012611        3.16710676549594       -0.02542898010345
H           -2.87961316045552        2.15272892732838       -0.95417777911023
H           -2.93452432955845        2.13489057844535        0.81138149227916
H           -1.09821058917319       -3.09095641854000        0.82554532022169
H           -1.07511408664597       -3.06970931421844       -0.94532518424443
H           -2.53297888447035       -2.51479770228256       -0.07226645901359
H            1.91046731869604       -4.91501839333357       -0.03279049151363
25
 energy: 19.775612462364 xtb: 6.6.1 (8d0f1dd)
C            3.24050544593772        1.24027755794768        0.08718103378648
N            2.26240699967954        0.18851903965795        0.03892302636110
C            2.49070323431791       -1.13867181549227        0.03111314107990
N            1.38939260371468       -1.86026381308937        0.00282956021507
C            0.38706387472162       -0.95465311074980       -0.00572109620775
C            0.89709829999087        0.33743389906930        0.01690625327712
C            0.05825210746017        1.49998026188369       -0.00421395233225
O            0.42711652249329        2.66029099957276       -0.00309000116953
N           -1.29163668089244        1.14599858504896       -0.03073327849724
C           -2.27349842963895        2.22096312378749       -0.05105062024356
C           -1.83144180459484       -0.13460535537098       -0.04661393160864
O           -3.03003017345887       -0.30614180421106       -0.07082315613181
N           -0.94867650908578       -1.19833883258015       -0.03497985852792
C           -1.44557035690617       -2.55596229291989       -0.05758710896546
H            3.72066738670360        1.26651645537054        1.06757791521864
H            4.00334457792860        1.07471376035110       -0.67403398397661
H            2.74314175006025        2.19321109098773       -0.08943021946134
H            3.47313929180624       -1.56547529165960        0.04369556213979
H           -1.73733457365136        3.16702933717518       -0.02618019692927
H           -2.87990287103526        2.15238903723952       -0.95402552689946
H           -2.93387195852034        2.13502453339264        0.81153914939601
H           -1.09780112723945       -3.09066317497839        0.82617229169367
H           -1.07534951260381       -3.06975804442360       -0.94471908200241
H           -2.53311062202336       -2.51518034579971       -0.07133591693549
H            1.89760682980857       -4.90360501146570       -0.03436609108451
25
 energy: 19.764865681753 xtb: 6.6.1 (8d0f1dd)
C            3.24057910143996        1.24030964878621        0.08615264043095
N            2.26312591310532        0.18755044270956        0.03902436592232
C            2.48977488932938       -1.13926872225890        0.03201354508359
N            1.38979150148982       -1.86107512076813        0.00394193921381
C            0.38724181575253       -0.95557362287594       -0.00529120898907
C            0.89694308131605        0.33690653106265        0.01733475275026
C            0.05872983048846        1.49961696009346       -0.00312682393681
O            0.42694123790733        2.66004340403128       -0.00188508831811
N           -1.29161766212521        1.14614952054148       -0.03025895347848
C           -2.27341365885441        2.22093071207196       -0.05085112416833
C           -1.83148482417512       -0.13496763492280       -0.04671963014861
O           -3.03015061734562       -0.30592787023084       -0.07148829755737
N           -0.94896928257194       -1.19770884709608       -0.03485960558683
C           -1.44577660065552       -2.55624171710374       -0.05814343900956
H            3.72099726024128        1.26709473115063        1.06636519277777
H            4.00323521136246        1.07429097029914       -0.67525123061899
H            2.74273144799687        2.19278206707150       -0.09095035637380
H            3.47343841419049       -1.56477173702452        0.04495128495950
H           -1.73747984204545        3.16712575156688       -0.02549995932168
H           -2.87948682213325        2.15257701626188       -0.95412927852397
H           -2.93432726009742        2.13482776849835        0.81138356830490
H           -1.09789151243812       -3.09061617486977        0.82554458596061
H           -1.07480934532776       -3.06920806894452       -0.94529150044444
H           -2.53314037021911       -2.51540119588890       -0.07223266611403
H            1.89723239834141       -4.90041602341684       -0.03369880061905
25
 energy: 19.763257326645 xtb: 6.6.1 (8d0f1dd)
C            3.24053275917399        1.24038415430493        0.08710745277219
N            2.26350771799028        0.18708861893256        0.03896139102958
C            2.48918356661737       -1.13955037875353        0.03119294107420
N            1.38951590202618       -1.86126989123791        0.00328084944212
C            0.38719238778182       -0.95552858999159       -0.00570842215300
C            0.89682960242746        0.33698006526141        0.01654221293518
C            0.05887901731936        1.49965588337122       -0.00422579195824
O            0.42688887155065        2.66012486792469       -0.00301668203795
N           -1.29157183781048        1.14632062877420       -0.03068709000699
C           -2.27336388418442        2.22097240289306       -0.05103599557509
C           -1.83150565600128       -0.13530783921372       -0.04663266711906
O           -3.03028154639824       -0.30557166216865       -0.07090937955507
N           -0.94919960424224       -1.19732924257306       -0.03477669246529
C           -1.44586798812303       -2.55634594605872       -0.05756048890772
H            3.72059661919644        1.26648590771468        1.06752933776717
H            4.00348957123841        1.07488012391697       -0.67406328007312
H            2.74245644319002        2.19271271939425       -0.08952012991987
H            3.47347535769865       -1.56429297606808        0.04401478438435
H           -1.73743909578398        3.16717693821749       -0.02614240691138
H           -2.87986883401196        2.15241543270096       -0.95402691422282
H           -2.93389646515697        2.13503167408278        0.81151472780442
H           -1.09752118419924       -3.09024809996683        0.82617575480033
H           -1.07509540141755       -3.06929351011294       -0.94465681296678
H           -2.53319114055326       -2.51543350550472       -0.07129121093248
H            1.89846912664444       -4.90102898709543       -0.03503157501009
