25
 energy: -42.546209994890 xtb: 6.6.1 (8d0f1dd)
C            3.22998565795989        1.18245153845521        0.08589813285254
N            2.28511914533179        0.09272224438794        0.03178943944735
C            2.53709304565117       -1.23441897257008        0.03539275449920
N            1.43270071111403       -1.96365835433296        0.00530459244895
C            0.40651775611319       -1.07382427923376       -0.00997969276011
C            0.91221211261558        0.22298312362654        0.01149990923434
C            0.08834858907132        1.40509106672915       -0.00462147794581
O            0.47145238444500        2.56132658854189       -0.00188493974463
N           -1.27169603199757        1.08084236095527       -0.03058986919518
C           -2.23782228058374        2.17100918404168       -0.04974025466185
C           -1.81858641098149       -0.19072368608231       -0.04756824700807
O           -3.01800359538760       -0.35582152786425       -0.07177793433752
N           -0.94027217038252       -1.27008231548534       -0.03689366469387
C           -1.47333589866758       -2.61526608429525       -0.05983784972089
H            3.71316943178951        1.23009378206350        1.06480785727001
H            4.00005377591713        1.05142258500650       -0.67525818391235
H            2.70331937513495        2.12279406563132       -0.08553548968615
H            3.54152862256280       -1.61482021263298        0.03985564728621
H           -1.69016205123936        3.11077583643704       -0.02437784852699
H           -2.84367606353530        2.11241516452318       -0.95346561247966
H           -2.89693305432584        2.09443232990565        0.81427329911590
H           -1.14542065540379       -3.15797250156070        0.82748650317308
H           -1.12184439258551       -3.13652884155818       -0.95106181041522
H           -2.55794506026339       -2.53680468789698       -0.07348628376902
H            1.69716525490592       -3.65353404744851       -0.01935079453019
