72
 energy: -99.293342590247 gnorm: 0.001647856273 xtb: 6.6.1 (8d0f1dd)
N           -1.83706882207032        2.92164569651731        2.17298207125404
C           -1.79347176490595        2.17752808999473        1.17094438156649
C           -2.94249902200087        1.96133215218408        0.22423867830319
C           -3.41426489621507        0.51964655104486        0.31950970181740
C           -4.35030325195814        0.03540171169167       -0.59656178556532
C           -4.83237986123081       -1.26137152327025       -0.52035779079103
O           -5.74318874163499       -1.80457348853582       -1.34860911421965
C           -6.36479470731229       -0.99846942329653       -2.32263566176973
C           -4.34554849750982       -2.13146897016323        0.49792861223938
O           -4.83118067007572       -3.38020769108767        0.47382301695635
C           -4.23869579557530       -4.34976946593021        1.29535190113285
C           -3.43166016776366       -1.63264127722078        1.42004854719846
C           -2.97822005110633       -0.32547535620794        1.33027479406934
C           -2.39284296509989        2.25767217821298       -1.19676780986583
C           -1.49909404551265        1.15609388314879       -1.79627454463318
C           -0.15088641993121        1.07526252209101       -1.17792757173056
N            0.44359934188005       -0.03653696768853       -0.75013903020279
C            1.82552114598409        0.08752070694333       -0.28820415055815
C            2.81065953922332       -0.27711033826684       -1.40960964199221
C            4.22643252887058       -0.08833496483968       -0.93925606734831
C            4.88145386243477        1.11814319051567       -1.13675039721166
C            6.17926457439467        1.30443930394259       -0.68843321668748
C            6.85171144700041        0.28625787887986       -0.02531690470910
O            8.10579521385699        0.35547719155196        0.45002775507028
C            8.85807382565213        1.53063520012448        0.24867394467707
C            6.18637982651871       -0.95581148896313        0.18589936267467
O            6.90903815728604       -1.88897816315943        0.83027006523663
C            6.35098727648860       -3.16059376686637        1.06580729380870
C            4.88680299777579       -1.11668218073998       -0.27254444407771
C           -0.06950812193582       -1.25594819800415       -0.73363083434881
C           -4.16234883776360        2.88502708426225        0.52381041938726
C           -4.79038814891738        2.56172086594217        1.87729189161363
C           -3.82482484583362        4.37117908946742        0.45366597725873
H           -4.71032826366265        0.68381109226997       -1.37827545023592
H           -6.87558704534420       -0.14476411846988       -1.86721131134719
H           -7.09763416707153       -1.64035859736543       -2.80762365904442
H           -5.64782803115534       -0.64252927650635       -3.06922826600411
H           -4.41636159169688       -4.15805313072048        2.35725459900992
H           -4.67372294575704       -5.30393838995958        1.00709418676138
H           -3.13930500890450       -4.35211753288326        1.10735447828034
H           -3.08998638118720       -2.24775425282745        2.23488525433409
H           -2.29024301071715        0.03405770531945        2.07905748353445
H           -3.23730432606962        2.40571679712963       -1.86948682787370
H           -1.83079162290072        3.19193632648251       -1.16609187009449
H           -2.01650818344591        0.20079584666786       -1.74243324424998
H           -1.36867441446051        1.40350793287394       -2.85743204067952
H           -0.88903014133759        1.63192937122446        0.85193516149716
H            0.44486215204674        1.97406620579160       -1.17437440412596
H            1.97649031536550       -0.57821224020705        0.56392282434616
H            2.01195288550175        1.11281267327502        0.03799589944727
H            2.62009971460639        0.36262861920041       -2.27330055928913
H            2.64636305506812       -1.31379654262771       -1.70738601217743
H            4.38606341238440        1.92394536836293       -1.65651424010402
H            6.66412611637339        2.25062890122082       -0.86495780832837
H            8.40417119671798        2.38782560358100        0.75525983111450
H            8.97389119089231        1.75360334764463       -0.81587853309334
H            9.83503056864493        1.33032028282088        0.68439787756566
H            7.12386772852724       -3.72735902311101        1.58136496601251
H            5.46351777589742       -3.09732243216611        1.70320152122593
H            6.09549116927215       -3.66584572569776        0.12948021372844
H            4.37867794786644       -2.05686913683743       -0.12605807024156
H           -1.06610396429594       -1.45336721881114       -1.07080061010475
H           -1.78497453036807       -3.47432525103536        0.56219690135960
H            0.50622064204673       -2.06243933884142       -0.32746763125561
H           -4.90772929079319        2.67192490358531       -0.25108270199191
H           -4.08484938823164        2.77260337810180        2.67493937509205
H           -5.08692305541686        1.51713923595093        1.93540836196827
H           -5.67366155943596        3.17732280327414        2.02585977726082
H           -3.07655767953487        4.62320477028278        1.19888774468554
H           -3.46348715053867        4.65985961780889       -0.52961440996181
H           -4.72073276432650        4.94998944587942        0.66291762400932
H           -0.99853586057145        3.02255146954293        2.73553896301377
