  25
        -42.10403553
 C          3.2334000560        1.1189670607        0.0287028041
 N          2.2770102842        0.0448520172        0.0032240470
 C          2.5418922446       -1.2587177714        0.0055259971
 N          1.3850875593       -1.9619098216        0.0005310817
 C          0.3513165959       -1.0738903758       -0.0032968461
 C          0.9069458579        0.1994758894       -0.0004359478
 C          0.1080544670        1.3872934683       -0.0153932147
 O          0.4869590768        2.5366013520       -0.0473825269
 N         -1.2951776547        1.0725240678        0.0050614210
 C         -2.1529644164        2.1021386119        0.0105918329
 C         -1.8632655477       -0.2347378602        0.0119849760
 O         -3.0523620785       -0.3951643347        0.0328300727
 N         -0.9763774449       -1.3078203583       -0.0100464482
 C         -1.5102216582       -2.6573502004       -0.0319732495
 H          3.6861792396        1.2000318367        1.0185317748
 H          4.0198893621        0.9421866210       -0.7039283081
 H          2.7194591401        2.0524558757       -0.1974276722
 H          3.5203903259       -1.6963660504        0.0087334180
 H         -3.1815062078        5.3329897445        0.1450284830
 H         -1.7447241509        3.0948012794        0.0026498616
 H         -3.2051028950        1.8965405521        0.0218002008
 H         -1.2240469726       -3.1960717291        0.8715957915
 H         -1.1583262336       -3.1882697651       -0.9167297011
 H         -2.5959675851       -2.5839718774       -0.0697933170
 H          1.3154405232       -2.9693576630       -0.0003706388
