25
 energy: -42.013097234699 gnorm: 0.004830938899 xtb: 6.6.1 (8d0f1dd)
C            3.25456289951321        1.20996199631320        0.31049837509956
N            2.25838727645176        0.23185218469788        0.00567505465602
C            2.17507385903338       -0.98330585158922        0.77445463615824
N            1.24489812845448       -1.89505293250028        0.13065385013392
C            0.27198380850483       -0.97130969240619        0.07745172887939
C            1.06604746473133        0.05680157710969        0.81306132934757
C           -1.61420117199406        1.67156181706719       -1.67570402083674
O           -1.71072511056956        1.96608594170594       -2.78192514081908
N           -1.49511972962214        1.17177210698316       -0.52729493233332
C           -1.26383521290431        1.94340843880109        0.69759763061863
C           -1.99969920399643       -0.24661258705079       -0.38190553417209
O           -3.17304153939879       -0.44981807531910       -0.45828305901697
N           -1.01456439727014       -1.19080349780259       -0.26031146302182
C           -1.43374104124176       -2.58139654800539       -0.45674991974326
H            3.47703297575816        1.27890621918909        1.38113946350142
H            4.16592447867284        0.94213224243829       -0.22452121860910
H            2.90780891335601        2.17959729985878       -0.04432743105375
H            2.91159332736597       -1.31493364924240        1.48115619086643
H           -1.02534034271890        2.97289290769888        0.44244081581874
H           -2.15945764617724        1.91533662539122        1.31768488304007
H           -0.41643989703316        1.48386176123390        1.22346252446283
H           -1.07369764912300       -3.19523024840934        0.36737030975951
H           -1.04260382590840       -2.95938519983118       -1.40168959038299
H           -2.52076115616911       -2.61767995667239       -0.48289659115164
H            1.37034630637773       -2.80040433805952       -0.29586627329730
