72
 energy: -99.268131634587 gnorm: 0.002597220682 xtb: 6.6.1 (8d0f1dd)
N           -1.89230502197638        2.84468296217637        2.21599256433903
C           -1.82874245092145        2.16384227967699        1.17078710291980
C           -2.97382585514380        1.95734707852107        0.21616284984359
C           -3.45746506534785        0.51846269011288        0.30297310871676
C           -4.41472718099868        0.05665783208092       -0.60290872580006
C           -4.90506870319795       -1.23784906105506       -0.54594334561689
O           -5.83670225096528       -1.75710590087092       -1.36632394039592
C           -6.46803032208487       -0.92075663734081       -2.31059069564441
C           -4.39530129699250       -2.12609493207121        0.44050870478252
O           -4.92131765092008       -3.37265835112368        0.41761007112614
C           -4.52497443674995       -4.37789079033110        1.15121881962563
C           -3.44585890669532       -1.66091995510408        1.34759813266492
C           -2.99055963152855       -0.35594331021730        1.27857741398533
C           -2.41239187335104        2.23828986254896       -1.20257851348633
C           -1.47897170593430        1.14414902004934       -1.75255871521827
C           -0.14444991885104        1.12772272516729       -1.11198641506319
N            0.51187888150076        0.04005245600474       -0.72041450085622
C            1.88909762813336        0.12799630108814       -0.29523098000103
C            2.86355982485620       -0.34073674929967       -1.39293900157801
C            4.28112941314230       -0.13837539666122       -0.93461713412010
C            4.92333955297885        1.07084588535108       -1.14659051112806
C            6.22106250836873        1.27362176980379       -0.70342318174702
C            6.90298511243435        0.26867310438750       -0.03251134012730
O            8.16127671000054        0.35071308635551        0.43696422171994
C            8.89708407135432        1.53480968545327        0.23150203728822
C            6.24987536993694       -0.97446189799597        0.19567646113862
O            6.98462601229722       -1.89345084469339        0.85259229685148
C            6.43817392823430       -3.16661064040654        1.10064058444251
C            4.95152807682329       -1.15308995452002       -0.25564057555976
C           -0.08691196693193       -1.27219794247982       -0.76264095346856
C           -4.18365538779600        2.89926549562018        0.49934681692451
C           -4.84333818264349        2.57831543947185        1.83839355144665
C           -3.81496139972331        4.37936352790709        0.44859524628775
H           -4.79608352814354        0.72648700922396       -1.35465431043689
H           -6.96207771728263       -0.07431772120891       -1.82564559761806
H           -7.21530972892846       -1.54395385112141       -2.79728191749839
H           -5.75933466078632       -0.55556360306506       -3.06005487991620
H           -4.95158602546202       -6.26884901353558        3.42256846176926
H           -5.08593398222637       -5.28352415772482        1.02148115480343
H           -3.72528873609033       -4.31481982627798        1.86887184072427
H           -3.07749115486742       -2.30408854959736        2.13024946679197
H           -2.28314698815856       -0.01523993703805        2.01807509089606
H           -3.24791009419141        2.34718767737871       -1.89328981129693
H           -1.87451070613117        3.18679212985709       -1.18569632441548
H           -1.97019072332948        0.17486245428723       -1.68723111559586
H           -1.32766899339681        1.36921366458348       -2.81656938727183
H           -0.90540133677954        1.66896620495957        0.81171045355131
H            0.40650331743652        2.05641229771658       -1.09015134365797
H            2.02824552167699       -0.48571983149742        0.59906162560267
H            2.12145072594778        1.16332403202597       -0.03799508632178
H            2.67920670173691        0.24129564702946       -2.29752988567101
H            2.68658007052379       -1.39327387724601       -1.61675862067094
H            4.41836387016189        1.86574631822198       -1.67425061864443
H            6.69687342364856        2.22212268998803       -0.89083983509239
H            8.42614010589870        2.39020674929617        0.72536132975737
H            9.02037992219416        1.74965602787898       -0.83416392236576
H            9.87267911728651        1.35300663054491        0.67817504744155
H            7.21890713742088       -3.72415308144279        1.61436604572424
H            5.55492279434039       -3.10590246007055        1.74465328342507
H            6.17936129583379       -3.68087502005532        0.16990886356511
H            4.45122396300695       -2.09527069376090       -0.09469688800751
H           -0.23368550515796       -1.60747345572914       -1.79184919705262
H           -1.05348504171436       -1.26684317685448       -0.25305055301936
H            0.56543369579309       -1.98025944040158       -0.25794516679169
H           -4.91789455363166        2.70934549560111       -0.29168952492289
H           -4.15057884584484        2.77237139619148        2.65049879467381
H           -5.15965524710916        1.53897293756355        1.88428486643202
H           -5.71876842020408        3.20837433445364        1.97152915388950
H           -3.06816922026164        4.60974024367396        1.20195764477251
H           -3.44219955503148        4.67283154361070       -0.52918364402698
H           -4.70084831544678        4.97315189815474        0.65780601458244
H           -1.04859486703608        2.93753099928324        2.77299188020132
