72
 energy: -99.548769320270 xtb: 6.6.1 (8d0f1dd)
N           -2.09290959859440        3.17607658941819        2.40153279167972
C           -1.93066680863713        2.26254804059012        1.50014760009569
C           -2.70262272731218        2.35625537446406        0.34908031553078
C           -4.18997267503380        0.71665148104868        1.40203374298441
C           -4.83648821407232        0.41032077154709        0.17434913424360
C           -4.85244579478982       -0.86542247422610       -0.36844971717480
O           -5.47676576490341       -1.22269524697053       -1.54101894684338
C           -6.26260120241221       -0.27804511719794       -2.21568053976033
C           -4.16785935122516       -1.91974884610053        0.26838896287478
O           -4.23559565395949       -3.15183829725339       -0.32429585161615
C           -3.77616392198560       -4.24285327423245        0.44007258914407
C           -3.55568933157935       -1.66585120504302        1.48238557208381
C           -3.54647248882382       -0.36353472195209        2.00206738792987
C           -2.33243145956655        1.88947193429589       -0.98303986146505
C           -1.53719314211687        0.62513460273758       -1.23494613176273
C           -0.11704364138835        0.63558448846899       -0.86884943870266
N            0.53880137142820       -0.35674174001986       -0.20484138117084
C            1.96549704590267       -0.25090988333162       -0.01901319319109
C            2.84889739632742       -0.73061106969919       -1.19962781624112
C            4.30124211989401       -0.55624307006716       -0.84575880765862
C            4.95760551093888        0.64469792724921       -1.06159336434709
C            6.28367186125805        0.81799113619657       -0.67437777638539
C            6.98413334169601       -0.20570991371360       -0.05455492747577
O            8.27910007069480       -0.13801019170484        0.37319234439249
C            8.99235725121611        1.05323024799572        0.14824919277109
C            6.32424626738083       -1.43621115593708        0.17329321379072
O            7.06793287740934       -2.39658882094080        0.79636990320067
C            6.47191955448689       -3.64104685693600        1.04867222000519
C            5.00527129259615       -1.59159253779858       -0.22773527841292
C           -0.05200291710197       -1.66222985155235       -0.19653189760244
C           -3.68118382809413        3.52431587008411        0.36339266907963
C           -4.13661701426066        3.82901915170749        1.74850536798555
C           -3.06210815072150        4.74207497373793       -0.25585919901008
H           -5.34517623842869        1.18523506002340       -0.38302220920100
H           -7.08463691990460        0.08167249689920       -1.57252282673826
H           -6.72924209357399       -0.79266118327419       -3.05813835606398
H           -5.61213002825795        0.53956407999767       -2.55906524787727
H           -4.17576117495508       -4.40008989220323        1.44153936558097
H           -4.03978151635595       -5.11184247896691       -0.13711339713359
H           -2.70866466427413       -4.16327721491581        0.55810309284305
H           -3.08917424634797       -2.49482130312381        2.01048302911983
H           -3.00452074979094       -0.18296493383885        2.90889741838823
H           -3.22174035572931        1.85497014857482       -1.61739106055500
H           -1.70959164427779        2.66119259221060       -1.40389023115332
H           -2.02882804299218       -0.17177465340699       -0.70394119278762
H           -1.72723752244258        0.48997603908955       -2.31008530970021
H           -1.29278604397232        1.43664361594308        1.80144326180865
H            0.43424922888759        1.49753549335395       -1.17409237099600
H            2.23380797424239       -0.82381441124881        0.87289773553730
H            2.17779996700891        0.80279028522264        0.16878011418276
H            2.60960516044840       -0.14802133505373       -2.09244859230757
H            2.63501248728121       -1.78086955665112       -1.40857177763342
H            4.43465867172879        1.46314369262845       -1.53697703395529
H            6.76777643090616        1.76756652563921       -0.85459688899179
H            8.53915137999972        1.89929464510328        0.67693582578912
H            9.05572453413376        1.29414833372672       -0.91982201723070
H            9.99154288782928        0.86897599205618        0.55253146937078
H            7.24890121282592       -4.23578475324056        1.52797880339350
H            5.61530844710172       -3.54199371564799        1.71711452904972
H            6.15030245240304       -4.14029009192652        0.12883217307793
H            4.49953727203360       -2.53186117504511       -0.05825148477931
H           -0.27316877109628       -2.08077123180465       -1.18515381555639
H           -0.96869521793971       -1.61893225945339        0.38857628060829
H            0.63821535611923       -2.30652993931390        0.30672883832839
H           -4.55857955836466        3.39082328375155       -0.26824554516871
H           -4.34214282655630        1.80376563743437        1.97189410272618
H           -5.26012841093957        3.86155230442293        1.81999880337399
H           -3.75502733906525        4.69324917027360        2.21642105424580
H           -2.11294349147275        4.95794307556823        0.19926566322877
H           -2.97079545618006        4.56578558210507       -1.30586198440982
H           -3.76223244982503        5.55704128178140       -0.08963050961318
H           -1.75294559037119        2.98497256438318        3.33643024579742
