  25
        -42.14439742
 C          2.7614109520        0.3533184513       -1.3716451633
 N          2.1387014475       -0.4421767675       -0.3437377396
 C          2.8796587442       -1.1507224074        0.5447826806
 N          2.4998864466       -1.7915695213        1.5641828123
 C         -0.1678343391       -1.2405476282       -0.4544927887
 C          0.7522595146       -0.2850472453       -0.1999934010
 C          0.2720524737        1.0592874392        0.1936493692
 O          1.0326330162        1.9656432378        0.4547291895
 N         -1.1032398828        1.1859973598        0.2488387820
 C         -1.6592568181        2.4759528651        0.6232266424
 C         -2.0204581585        0.2001108364       -0.0598518657
 O         -3.2085042838        0.3876465585       -0.0465417900
 N         -1.4740678869       -1.0525586945       -0.4042608421
 C         -2.4006601923       -2.0967035937       -0.7918507116
 H          2.8374099607        1.3983256339       -1.0523744378
 H          3.7583945310       -0.0244051964       -1.5877131761
 H          2.1557403066        0.3126911334       -2.2778060339
 H          3.9488606511       -1.1606205803        0.3295656258
 H         -0.8367434077        3.1580049215        0.8341242532
 H         -2.2740845121        2.8645886574       -0.1911221788
 H         -2.2939363249        2.3652451897        1.5044076220
 H         -2.5382597836       -2.8091545283        0.0239101512
 H         -2.0146695848       -2.6278485094       -1.6614341617
 H         -3.3634425435       -1.6400283142       -1.0247963286
 H          1.5437628324       -1.8499820159        1.8909105829
