25
 energy: 8.953511224094 xtb: 6.6.1 (8d0f1dd)
C            3.21795886373250        1.15659856490460        0.12469414221750
N            2.28060738030433        0.07745957252176        0.04148356457887
C            2.59324376187417       -1.27867043612245        0.03382554374636
N            1.39335847844603       -1.95330135164113       -0.02128198780263
C            0.38115046837086       -1.05582044454278       -0.02377202814593
C            0.88180018989537        0.26211116355171        0.01869291175616
C            0.05034589045379        1.45133575670260       -0.01177209090146
O            0.22714157396693        2.68620095278971        0.01755104083883
N           -1.32152917610567        1.06132089944413       -0.08016551459064
C           -2.16036390333240        2.29019198588869       -0.12106304047034
C           -1.85059578301801       -0.21679274468637       -0.05255767901401
O           -3.04267611064672       -0.44557006519848       -0.04077341044306
N           -0.95269760710727       -1.32345784029704       -0.04362694519744
C           -1.44795866839588       -2.68538883591646       -0.08394766537555
H            3.63572145082301        1.25060368747278        1.13406948591554
H            4.03767451162273        1.00674870067839       -0.58491953532769
H            2.67081517096606        2.06278032913575       -0.12962509515050
H            3.57282432451237       -1.70530643180653        0.02805632795599
H           -1.65944294421829        3.27136444077928       -0.47094246317301
H           -3.02740543802965        1.98959877411005       -0.71145114406544
H           -2.51234122781447        2.48129921178700        0.89688683497123
H           -1.12152160041876       -3.25875803964888        0.78951405245914
H           -1.11911141609535       -3.20265461210476       -0.99090804273611
H           -2.53501424731256       -2.63747383946967       -0.08280315616318
H            1.33484670906740       -2.96074297528749       -0.05387412484763
