25
 energy: 14.559859127028 xtb: 6.6.1 (8d0f1dd)
C            3.21001660374005        1.15192703015845        0.13558835386023
N            2.27610946765605        0.06869999360991        0.05539506360424
C            2.58828047057155       -1.28797908883064        0.03616498406688
N            1.39117781764632       -1.96108082684275       -0.02776502671879
C            0.37759467487549       -1.06438196121740       -0.03086798878288
C            0.87517338192805        0.25209499038725        0.02291349139271
C            0.03278192015727        1.43525210411819       -0.02795018791340
O            0.17693137789062        2.67089405186052        0.02736764603348
N           -1.33806075980244        1.05651777840813       -0.11753611596136
C           -2.17624737354226        2.31382311154958       -0.13988703965599
C           -1.86236372168021       -0.22675559678706       -0.06788969140845
O           -3.05112303683316       -0.46634335660472       -0.03708429786059
N           -0.95664411721636       -1.33302074040472       -0.04941609785466
C           -1.44233162477842       -2.69871531584072       -0.08903087865273
H            3.61116156379732        1.25999935110395        1.15086310545327
H            4.04292771534051        0.99913419337447       -0.55936068271225
H            2.66437906208605        2.05307842472620       -0.14097561316714
H            3.56848329912840       -1.71934532410920        0.01995890312033
H           -1.72297191209134        3.32662625302826       -0.55285256970767
H           -3.07890806404650        1.96920643787336       -0.64265805086372
H           -2.42170647752621        2.56486359320774        0.90003605513671
H           -1.10717543253061       -3.27342498919428        0.78068811135878
H           -1.11452021428571       -3.21338969350553       -0.99820763978151
H           -2.52949488379666       -2.66059598603837       -0.08073062210494
H            1.33656898387441       -2.96919843814330       -0.06879817804882
