25
 energy: -42.129799697849 gnorm: 0.008017832656 xtb: 6.6.1 (8d0f1dd)
C            3.69546144486169        0.94346344595436        0.01808004362400
N            3.51841661944529       -0.44700473926396        0.03563942947855
C            2.63646867117117       -1.30414561694433        0.02109697540472
N            1.19365049585866       -1.36308416698210       -0.01438135221331
C            0.07508954591676       -0.62468194788210       -0.00682375690682
C           -0.24903509316746        0.77993858061997       -0.00072194241669
C            0.46429579111623        1.90062035407372        0.00392648832660
O            1.00683889623022        2.91428358626709       -0.00529840104124
N           -1.66313057955112        0.86379270683748       -0.00061687712619
C           -2.48007391263114        2.05898205318076       -0.00596613876290
C           -2.20993748183201       -0.37648254852837       -0.00512988847376
O           -3.35857454132930       -0.69473560075100       -0.00586468398237
N           -1.10553443242201       -1.27456331466014       -0.00727440767228
C           -1.32926330905834       -2.69853006316391       -0.00785503507854
H            4.25945934654780        1.20328827205297        0.91665976585950
H            4.34375946487055        1.16770538472101       -0.83172272353738
H            2.79783937155241        1.55224567805271       -0.04004016428248
H            2.98173360341778       -2.33314211310775        0.03892825599448
H           -1.85761486959850        2.94841360829088        0.03188817895218
H           -3.08992939790997        2.07749488742252       -0.91021474385744
H           -3.14572289863155        2.04109584572345        0.85753654766583
H           -0.91712756056096       -3.16723288089991        0.88794142403178
H           -0.92511889332431       -3.16609252687649       -0.90787020637982
H           -2.41260349189459       -2.83722733800888       -0.00346371976487
H            0.93108472502278       -2.34616300452811       -0.02728144994160
