25
 energy: -42.113074536244 gnorm: 0.003730768172 xtb: 6.6.1 (8d0f1dd)
C            3.18829156640308        1.51132369838541       -0.33979927056543
N            2.22960841223534        0.69927566941945        0.06500312919636
C            1.91792715536711       -0.42408280132462       -0.62261576295241
N            0.90635505129957       -1.30901376505820       -0.25622459764837
C           -0.41444704947099       -1.11126119057273       -0.16831783707244
C            1.53230947106924        1.04606357397344        1.24254000576174
C            0.74897875565173        0.26578062622162        1.94301860308889
O            0.01790119487985       -0.34950546127329        2.60786093105753
N           -1.13289264376433       -0.03620426969070       -0.48449383290139
C           -0.79255568677526        1.14174101063047       -1.24355399734142
C           -2.52471678409594       -0.23216765361569       -0.13389420285049
O           -3.35983790772441        0.59562057604304       -0.31083999184417
N           -2.59886035415605       -1.47921251071545        0.37239903622718
C           -1.32680361882366       -2.13970257007367        0.44050864827035
H            3.44663770979250        2.37337371327588        0.23955065018550
H            3.73370498480168        1.28600340402125       -1.23587162307731
H            1.75484195619058        2.02388263912847        1.64529361581943
H            2.64570573355435       -0.78591628035448       -1.32708012977280
H            0.27914931500892        1.22748960579270       -1.38280326746029
H           -1.27699330868494        1.08586649760860       -2.22044664324322
H           -1.18991526740563        2.01739423673755       -0.72741117934848
H           -1.03977995489231       -2.36281286517738        1.47728029051649
H           -1.32263177866602       -3.08088593221633       -0.12446781115701
H           -3.45490290214969       -1.86459338703669        0.73506987204495
H            1.19335746445749       -2.28021802252984       -0.15953301703327
