25
 energy: -41.976003372074 gnorm: 0.004552821422 xtb: 6.6.1 (8d0f1dd)
C            4.99131733736222        0.15560560934066       -0.03845762362575
N            3.66123313535917       -0.23802439797014       -0.07290074820877
C            3.13744788305943       -1.39579440471132       -0.35735443758068
N            1.89829473859834       -1.70878084696225       -0.36606164545256
C           -0.38040492094714       -0.10792342169167        0.17496370454273
C           -0.42479020274749        2.44131861210676        0.88753616150286
C           -0.96834987778182        1.21365255890943        0.19826425889634
O           -0.35296586675674        2.36284079288087       -0.38181398626466
N           -2.37199694551068        1.03997184600824        0.04721846472973
C           -3.34896799307296        2.08995863540083        0.04260239444007
C           -2.65222198004803       -0.29221196137942        0.03522109683500
O           -3.71086684591283       -0.84747239485063       -0.03146930084108
N           -1.38021624141009       -0.95807646174553        0.11451873597157
C           -1.30375426710277       -2.39107744821279        0.11425342377858
H            5.20792841356191        0.58530407441995        0.94764258560407
H            5.70344059815329       -0.65551746956626       -0.24057473354465
H            5.14497720098705        0.95917367823657       -0.77141223633197
H            3.81116431913126       -2.22787799379911       -0.62921619987038
H           -3.14757001942780        2.79141715013464        0.85940676452542
H           -3.32133445440414        2.63691616592394       -0.90670662422114
H           -4.33499996350361        1.64059639206344        0.17309290811773
H           -0.93015370584012       -2.75063178996023        1.07524783675776
H           -0.62435113892216       -2.73469142645612       -0.66808001774265
H           -2.30678279901671       -2.78538840504890       -0.05591146173574
H            1.16435511029574       -1.00504855145908       -0.11883770237316
