  72
        -99.29334259
 N         -1.6937844356        2.7679510420        2.4566697051
 C         -1.6962634511        2.1130191520        1.3933027312
 C         -2.8664400017        2.0288793541        0.4515685093
 C         -3.3990386906        0.6055176418        0.4297269601
 C         -4.3676720866        0.2429527704       -0.5084328855
 C         -4.9045367695       -1.0340800120       -0.5365276172
 O         -5.8493266065       -1.4640560105       -1.3927602087
 C         -6.4485950322       -0.5505209335       -2.2822861909
 C         -4.4420774846       -2.0095007853        0.3938848006
 O         -4.9817796161       -3.2298149217        0.2700983008
 C         -4.4207885630       -4.2914934906        0.9940635789
 C         -3.4948549285       -1.6320178583        1.3397189246
 C         -2.9863311995       -0.3422510763        1.3556962904
 C         -2.3239196826        2.4247989090       -0.9477592011
 C         -1.4871504210        1.3431568614       -1.6559525928
 C         -0.1353944387        1.1519642751       -1.0705026387
 N          0.4160307095       -0.0169779850       -0.7510988794
 C          1.8082265001        0.0079951339       -0.3042776218
 C          2.7611636061       -0.2984358156       -1.4700454693
 C          4.1901018988       -0.2112096916       -1.0098186295
 C          4.8941503752        0.9792684055       -1.1133760536
 C          6.2048396489        1.0709158067       -0.6732606572
 C          6.8414307885       -0.0286831405       -0.1126936850
 O          8.1037224886       -0.0540813754        0.3449574340
 C          8.9035140179        1.1014682633        0.2331479802
 C          6.1257243768       -1.2553493421        0.0016267145
 O          6.8159114171       -2.2708098814        0.5500156729
 C          6.2064236614       -3.5335220118        0.6841334068
 C          4.8142367528       -1.3207323317       -0.4463412685
 C         -0.1492886830       -1.2104936216       -0.8314104473
 C         -4.0408017580        2.9733949213        0.8512608125
 C         -4.6637190754        2.5598322885        2.1823552296
 C         -3.6400303738        4.4444684524        0.9043214777
 H         -4.7098504062        0.9717316680       -1.2246202237
 H         -6.9155433660        0.2808833619       -1.7457612146
 H         -7.2151914360       -1.1161885323       -2.8082508898
 H         -5.7271233005       -0.1612244974       -3.0075874694
 H         -4.5754160948       -4.1859471559        2.0715179518
 H         -4.9007557087       -5.1976847048        0.6318088490
 H         -3.3252121224       -4.3236774687        0.7874598504
 H         -3.1691093317       -2.3297777879        2.0921049262
 H         -2.2732074747       -0.0787606999        2.1207317936
 H         -3.1702761553        2.6664374710       -1.5903123919
 H         -1.7214482900        3.3283299881       -0.8460142583
 H         -2.0447884923        0.4094309795       -1.6761112895
 H         -1.3606344072        1.6765955839       -2.6937823189
 H         -0.8208243535        1.5597898562        1.0125098378
 H          0.4988278326        2.0211526602       -0.9994342942
 H          1.9417765633       -0.7353776443        0.4841852636
 H          2.0434647124        0.9921223368        0.1062628932
 H          2.5867766252        0.4217414926       -2.2715907312
 H          2.5479315387       -1.2973175591       -1.8536464802
 H          4.4271673251        1.8475173567       -1.5526412240
 H          6.7278850334        2.0076609072       -0.7755276745
 H          8.4942476020        1.9294788154        0.8199458767
 H          9.0143345681        1.4114872583       -0.8099279822
 H          9.8767159298        0.8229282693        0.6327970757
 H          6.9609348101       -4.1751704071        1.1350957395
 H          5.3313424453       -3.4888692258        1.3399655281
 H          5.9164367897       -3.9438655462       -0.2878707092
 H          4.2678018499       -2.2479006011       -0.3730696261
 H         -1.1580383866       -1.3355950107       -1.1670213510
 H         -1.9416136491       -3.4594023431        0.2969388103
 H          0.3963654347       -2.0728876312       -0.5067594449
 H         -4.8052656770        2.8603418106        0.0739077271
 H         -3.9388406699        2.6703655579        2.9828747973
 H         -5.0045270132        1.5275746418        2.1548714726
 H         -5.5173025404        3.1967301061        2.3990728289
 H         -2.8713978138        4.5987316468        1.6554426618
 H         -3.2799780184        4.8024598624       -0.0563793859
 H         -4.5070033281        5.0399797441        1.1785164388
 H         -0.8440429538        2.7839609396        3.0111720551
