25
 energy: -42.479338952733 xtb: 6.6.1 (8d0f1dd)
C            3.10377949379948        1.02775328071566        0.10182957689288
N            2.30129905500699       -0.02302552466518        0.02072292772253
C            2.55897405713949       -1.35594531804544       -0.00761396534269
N            1.35554810470788       -2.05752779624535       -0.03107601746812
C            0.35718979433256       -1.16499056894940       -0.03487601815491
C            0.90846748697839        0.10688195313653       -0.02265258730476
C            0.11923849481122        1.29446948570357        0.02301933189942
O            0.49671169143589        2.44823870139964        0.06304633625699
N           -1.25410409862801        0.97946787721022        0.01047216011147
C           -2.17956643873563        2.10145235803059        0.04120953288289
C           -1.83453953367941       -0.26074477891311       -0.03553135024152
O           -3.03423803279457       -0.41327673618999       -0.06113025713043
N           -0.98378473527487       -1.37054069770059       -0.03977180566500
C           -1.55995978056850       -2.69558784952053       -0.07977575461607
H            2.63194811725363        1.96426060917404        0.39034577210451
H            4.07362587617323        0.81327562017576        0.49220344866206
H            4.30536490732477        3.28730256893964       -0.54133020905272
H            3.52224803766726       -1.81099232065887        0.06850827112681
H           -1.57006213210299        2.99941308684987        0.08386265561592
H           -2.79713538743611        2.09966639306805       -0.85531422963024
H           -2.82434257131246        2.03132520225474        0.91618559332208
H           -1.27229689200329       -3.27638755439303        0.79836194402176
H           -1.26943812457089       -3.22207134902625       -0.98965719089707
H           -2.64206924554313       -2.57538225132467       -0.08298588461434
H            1.27455578903206       -3.05731024793905       -0.03992589928061
