25
 energy: -42.178334036123 gnorm: 0.007991042329 xtb: 6.6.1 (8d0f1dd)
C            3.76730053888393        0.58796866242014        0.12259549439601
N            2.69267374257806       -0.18922341247271        0.04143189915197
C            2.69488584641594       -1.54190502109497       -0.01749687353254
N            1.40663164994744       -2.01602386848864       -0.05959044322952
C            0.57201149642807       -0.96844182412803       -0.03400419295102
C            1.34727864855751        0.20918074565367        0.01295773204146
C            0.66661618389763        1.43946133689136       -0.01313381792007
O            1.18514077288009        2.64941018852184       -0.06028826452378
N           -0.67572512388728        1.40173846936779        0.00014647313606
C           -3.39032504674748        1.52556241526590        0.07833304750783
C           -1.36478354540065        0.30239835521137       -0.00399451526977
O           -2.67363459706281        0.29502444806642        0.01716700016153
N           -0.79073808323324       -0.95684903441607       -0.04552797556768
C           -1.55439962916874       -2.18676400728582       -0.09260503865006
H            3.68357173702412        1.64557267026336        0.25344096357885
H            4.73235117104791        0.12460152666492        0.14275836388755
H            2.14529724398619        2.66945842727158       -0.15914113236849
H            3.56804373490666       -2.15519999088017       -0.01751359627293
H           -2.72408374608908        2.38048131332051        0.01898822231990
H           -4.08707420347139        1.53263014663156       -0.75596651122936
H           -3.93936338392332        1.54517859016939        1.01820663897897
H           -1.29351957551243       -2.82380672438536        0.75391268904359
H           -1.35890052855949       -2.71780009733598       -1.02595923487463
H           -2.61140522956309       -1.94204333331848       -0.03905051507337
H            1.16258144016486       -2.99237144031272       -0.10449479484010
