  72
        -99.30668235
 N         -1.8551540096        2.7615058696        2.5131364193
 C         -1.8044908671        2.0688554663        1.4737830285
 C         -2.9499310760        1.8784852446        0.5202223394
 C         -3.3926256105        0.4134845086        0.5062702652
 C         -4.2233837757        0.0870482075       -0.5795091847
 C         -4.8281283715        0.1507391876       -1.6325914301
 O         -5.4945641632        0.0639273448       -2.7313792099
 C         -6.2827197819       -1.1000185264       -2.9409053662
 C         -4.4122832819       -2.4740612156        1.3201997597
 O         -4.6325492486       -3.7463811159        1.6782654916
 C         -5.8679712046       -4.3103593529        1.2947221198
 C         -3.3395540616       -1.7931988540        1.7704894145
 C         -2.9907092273       -0.4347171114        1.4918246559
 C         -2.4112027568        2.2992601164       -0.8708150095
 C         -1.4533576967        1.2874406451       -1.5248473864
 C         -0.1278619004        1.1937472463       -0.8752960776
 N          0.5051021841        0.0616154761       -0.5859778101
 C          1.9003329538        0.0790887102       -0.2165189931
 C          2.8073288933       -0.2449456474       -1.4197060868
 C          4.2507868132       -0.1609789657       -1.0109383467
 C          4.9204407612        1.0512335020       -1.0351922643
 C          6.2438438463        1.1391405479       -0.6318491361
 C          6.9238881901        0.0129835118       -0.1916186017
 O          8.2057519773       -0.0201281050        0.2193830608
 C          8.9649097221        1.1665125290        0.1956714587
 C          6.2438603923       -1.2354067556       -0.1603866498
 O          6.9793123385       -2.2782455755        0.2757327953
 C          6.4025100827       -3.5615997438        0.3076665568
 C          4.9201861854       -1.2981656337       -0.5654681366
 C         -0.1228831983       -1.2281588294       -0.7421605619
 C         -4.2059900992        2.7326618285        0.8727181570
 C         -4.8072277443        2.3260143323        2.2164615380
 C         -3.9301969579        4.2336894461        0.8710417933
 H         -5.1333133065       -2.0079203549        0.6544767742
 H         -5.6638259029       -2.0006470233       -2.9127602758
 H         -6.7246507162       -0.9869544768       -3.9281688059
 H         -7.0717614296       -1.1744434417       -2.1883890784
 H         -6.6954561429       -3.8403021120        1.8354387465
 H         -6.0354858130       -4.2061525584        0.2181391672
 H         -5.8195155341       -5.3657491966        1.5558233643
 H         -2.7035982879       -2.3080388182        2.4773679709
 H         -2.2983772182       -0.0202459538        2.2133210987
 H         -3.2603457573        2.4310272274       -1.5407231102
 H         -1.9034428211        3.2593063462       -0.7727943995
 H         -1.9405169888        0.3172622853       -1.5887040715
 H         -1.2866729983        1.6417622623       -2.5502564811
 H         -0.8847480162        1.5708405503        1.1095105066
 H          0.4394769022        2.1056829484       -0.7611396200
 H          2.0727402809       -0.6519859099        0.5772962035
 H          2.1616043524        1.0675704024        0.1664862260
 H          2.6023436628        0.4741263734       -2.2149625364
 H          2.5784389901       -1.2448549743       -1.7901261384
 H          4.4165634347        1.9403868002       -1.3828269001
 H          6.7404259934        2.0947355645       -0.6690143517
 H          8.5427179532        1.9258853684        0.8610246196
 H          9.0438924892        1.5711784634       -0.8178072732
 H          9.9548401555        0.8865613226        0.5505924718
 H          7.1862423788       -4.2250809376        0.6679579438
 H          5.5510448582       -3.6026799132        0.9946549893
 H          6.0854854040       -3.8841320666       -0.6890455120
 H          4.3969718098       -2.2414929858       -0.5520157848
 H         -0.2821590424       -1.4676345333       -1.7960203238
 H         -1.0862794001       -1.2472513289       -0.2275403476
 H          0.5155257508       -1.9923348251       -0.3062878586
 H         -4.9430469121        2.5170861587        0.0895865300
 H         -4.1020461089        2.5277702046        3.0163706738
 H         -5.0670477595        1.2704075179        2.2317186618
 H         -5.7107997800        2.9016927044        2.3982779040
 H         -3.1706160627        4.4782226526        1.6072014193
 H         -3.6134214710        4.5879759873       -0.1057324613
 H         -4.8424422761        4.7618008069        1.1357261178
 H         -1.0051355424        2.8549802545        3.0603586977
