  72
        -99.38162417
 N         -2.2557693496        2.8193086503        2.8115570409
 C         -2.1033705319        2.0689895821        1.8226460550
 C         -3.0663082562        2.0049993864        0.6641773035
 C         -3.7283906963        0.6445344691        0.6316846120
 C         -4.6734799235        0.3616666786       -0.4958317894
 C         -5.1048736258       -1.0596399943       -0.6107200002
 O         -5.8286318608       -1.4879670148       -1.6512072320
 C         -6.2262895068       -0.5898281878       -2.6607603725
 C         -4.8141556401       -1.9969959486        0.3860209240
 O         -5.3065973772       -3.2407407903        0.1784781961
 C         -5.0801629824       -4.2354821605        1.1517250546
 C         -4.0493141836       -1.6066040355        1.4839731878
 C         -3.5058762869       -0.3128013629        1.5696336331
 C         -2.1683337305        2.1558020179       -0.6144471645
 C         -1.3533274642        0.9340096077       -0.8785594041
 C         -0.0441134939        0.8618350072       -0.5787602223
 N          0.7502767286       -0.2322285045       -0.6813711872
 C          2.1482995277       -0.1692483016       -0.3539308340
 C          3.0656122642       -0.1796272768       -1.5945883870
 C          4.4983292241       -0.1096732803       -1.1532186972
 C          5.2044641693        1.0824865765       -1.1918129188
 C          6.5109718341        1.1505594297       -0.7332242366
 C          7.1369755513        0.0266459546       -0.2123358124
 O          8.3919040745       -0.0218665021        0.2709862760
 C          9.1787328089        1.1468147971        0.2626848597
 C          6.4204898205       -1.2024003112       -0.1665072030
 O          7.0999313251       -2.2427224041        0.3556367782
 C          6.4720388388       -3.4988761199        0.4492519240
 C          5.1186466858       -1.2466847849       -0.6389083438
 C          0.2243346863       -1.4731125982       -1.1884954823
 C         -4.1455195711        3.1240406438        0.6970288339
 C         -5.0772319379        2.9563870796        1.8962449350
 C         -3.5541053357        4.5309002848        0.7012833956
 H         -5.5835857393        0.9685481189       -0.3377080269
 H         -6.8336094069        0.2259388114       -2.2583791963
 H         -6.8243738210       -1.1758854368       -3.3558677546
 H         -5.3659227010       -0.1718676070       -3.1930749954
 H         -5.5170657095       -3.9614038617        2.1162710055
 H         -5.5747959283       -5.1277880893        0.7732088054
 H         -4.0122275146       -4.4395435159        1.2771657141
 H         -3.8397710762       -2.3053836153        2.2754189973
 H         -2.8817059504       -0.0981472904        2.4230061312
 H         -2.8162120385        2.3726498353       -1.4661494136
 H         -1.5112300700        3.0129327872       -0.4670162860
 H         -4.2613022577        0.7159685324       -1.4478059580
 H         -1.8753434556        0.0752592391       -1.2688542614
 H         -1.2362286920        1.4069625168        1.6824591283
 H          0.4597859137        1.7420387157       -0.2001586582
 H          2.4051341048       -1.0232144778        0.2827190629
 H          2.3402867391        0.7430709416        0.2146898849
 H          2.8206680775        0.6748922704       -2.2263356329
 H          2.8912898422       -1.0926134311       -2.1662004116
 H          4.7397903654        1.9713518540       -1.5902059248
 H          7.0361444557        2.0902338072       -0.7843748973
 H          8.7263595110        1.9384201140        0.8677525832
 H          9.3413986457        1.5125450965       -0.7555181872
 H         10.1329921032        0.8591554067        0.6998156504
 H          7.2087960828       -4.1611748638        0.8997020302
 H          5.5849071636       -3.4568153888        1.0894813518
 H          6.1945543915       -3.8839183056       -0.5368669765
 H          4.5712109724       -2.1761270109       -0.6192519336
 H         -0.0495308518       -1.3874342487       -2.2438223790
 H         -0.6643435554       -1.7662501421       -0.6237943410
 H          0.9730748022       -2.2541455936       -1.0849807065
 H         -4.7360881334        3.0218378965       -0.2213428215
 H         -4.5276128536        3.1410602771        2.8134350951
 H         -5.4969560452        1.9539370313        1.9424692157
 H         -5.8937053689        3.6710632631        1.8308508759
 H         -2.9280115349        4.6757355299        1.5758348647
 H         -2.9712439808        4.7267477090       -0.1947107323
 H         -4.3628521184        5.2563593021        0.7381178676
 H         -1.5321254371        2.8071218933        3.5239688228
