25
 energy: -42.178502422726 gnorm: 0.009682843466 xtb: 6.6.1 (8d0f1dd)
C            3.21964429992982        1.14844271281362       -0.13223749385163
N            2.23828028932868        0.10157348721767       -0.05853247077510
C            2.47551490157813       -1.20711308076873        0.00830807638979
N            1.30244375430490       -1.88632434747150        0.03094941564571
C            0.28055466068385       -0.98233463704629       -0.03239069119632
C            0.87177535605421        0.29185232743978       -0.08396066940262
C            0.13284176179855        1.51141570916561        0.10582348544779
O            0.57856516134547        2.62275833579932        0.30506222723780
N           -1.27282510227552        1.25335358567587        0.12661698974008
C           -2.11463798695076        2.14518019424189        0.56715308993105
C           -1.85575443076538       -0.01387478639959       -0.58968643701545
O           -3.08358589933475       -0.14732575550212       -0.44472976239669
N           -1.03080821717405       -1.17946341144255       -0.05850307870714
C           -1.68611933581391       -2.44251501782521        0.15134367058569
H            4.03167530368629        0.95558959595031        0.56829976667295
H            3.63400125839947        1.21137068179892       -1.14141730011894
H            2.74142292943248        2.09830321730741        0.11003368152554
H            3.44688974770288       -1.65756579091746        0.04587827908365
H           -1.72547510588137        3.07503315471868        0.94467255513306
H           -1.45634227127939        0.14465173749691       -1.62236736961319
H           -3.16706591683675        1.91792232823792        0.52936218637131
H           -1.35837702782740       -2.88475501937572        1.09209210345589
H           -1.50297494261736       -3.13654262483704       -0.67449119466986
H           -2.75699242553578       -2.23074138863970        0.19878990660917
H            1.21778075214791       -2.89065266603686        0.08510265181508
