25
 energy: 6.307383229336 xtb: 6.6.1 (8d0f1dd)
C            3.11926368415887        1.27812043997159        0.17885419920577
N            2.28465488181768        0.10000735565463       -0.07655250190738
C            2.60173607986970       -1.27125891021093        0.08310115325731
N            1.39957395056526       -1.96503259013674        0.05189070077317
C            0.37779131372481       -1.12159697611885       -0.16740142486282
C            0.91063722032866        0.15334675418125       -0.36065706609684
C            0.12623720623509        1.27285946922736       -0.64411421670915
O            0.43216731173263        2.45374602334612       -0.82777060620116
N           -1.25784529604034        0.94158324324541       -0.27995218044493
C           -2.00721857753711        2.14004889178638        0.07551849405880
C           -1.82271331029959       -0.26805748599468       -0.03225286445144
O           -3.01359233490178       -0.44442228913378        0.15415809957769
N           -0.95639528708702       -1.38009090889783       -0.09118165575616
C           -1.52785407289211       -2.70391664054767       -0.07543623122223
H            3.48740456382955        1.40673194352059        1.21427781745985
H            3.98990729613027        1.29445528958450       -0.50297043190113
H            2.50306994412822        2.14870923254394       -0.03154207967934
H            3.57030302184836       -1.73278151335893        0.08497926182080
H           -1.28931110555900        2.92962486556086        0.24689319957810
H           -2.52722480009462        2.46749780812979       -0.80490743044345
H           -2.68099694678145        2.00174305378591        0.91898195469047
H           -1.21592577042436       -3.29417376579201        0.78773161280242
H           -1.24746962443090       -3.21777963369728       -0.99609813055759
H           -2.60822360101675       -2.56010105093423       -0.03169966466283
H            1.26807232630706       -2.96287633132929        0.06273933732107
