25
 energy: 88.103817029546 xtb: 6.6.1 (8d0f1dd)
C            2.56458121550994        1.46687802566060        0.37183129565783
N            1.76190674876009        0.27703823132642        0.20941410325416
C            2.39944776289840       -0.97281159243206        0.17312985992412
N            1.43957541459154       -1.95897484780373       -0.02262815181290
C            0.25289921530159       -1.31730848525561       -0.12220188384831
C            0.41499196162556        0.05227358038402       -0.06437968149455
C            0.23037293754036        1.91168745466998       -2.31888788645928
O            1.02030046694119        2.73089313026160       -2.13011898190391
N           -0.83387832730616        0.63294093588952        0.15792842951798
C           -1.29833328476902        2.04692651372341        0.35498280802832
C           -1.73390314010104       -0.41639484305963        0.22912508467666
O           -2.91188847427840       -0.33605604269016        0.47208193671351
N           -1.05285663006848       -1.62281927516235        0.05211470808385
C           -1.69948322954120       -2.89334395476873       -0.05055356732100
H            2.65622819539942        1.59892772760145        1.44678693034819
H            3.59940060755539        1.50415978022361       -0.01507248632398
H            2.01534525791822        2.25582434193747       -0.10438017776155
H            3.43894264674902       -1.11823707709966        0.14977863404393
H           -0.60450615491701        2.48111277556024        1.03881969914023
H           -1.29170870431192        2.76312714231480       -0.49158699387209
H           -2.29454836323836        2.07991550643297        0.79217476754222
H           -1.41062278038527       -3.54205861248009        0.77874528558367
H           -1.46509200824941       -3.36482160554558       -1.00674286267751
H           -2.76798462181919       -2.70021536995333        0.01031463682511
H            1.61257992336096       -2.93841420262060       -0.01943683074871
