25
 energy: 17.099753531843 xtb: 6.6.1 (8d0f1dd)
C            3.01873507730379        1.33390155122026        0.20642452791317
N            2.20341343879830        0.14716301980244       -0.11273712444243
C            2.56980689958614       -1.18992360453278        0.10769457772557
N            1.42164740878389       -1.95440459036076        0.05112441109782
C            0.36711697008959       -1.16335254633564       -0.24044026538538
C            0.84325294714174        0.13157561085760       -0.48437474247898
C            0.07791353132883        1.21241304790773       -0.94092359082351
O            0.40479779300701        2.37009776425159       -1.20733880428846
N           -1.22105599950051        0.92976478539037       -0.31736242275788
C           -1.89209643764729        2.14335250511050        0.11650045575355
C           -1.79023761930460       -0.27917002925936       -0.02097888171339
O           -2.96928766457629       -0.44307063129682        0.25563068635946
N           -0.96281871433354       -1.42392783058296       -0.12377160355322
C           -1.55756164051839       -2.73874395177164       -0.07318439186293
H            3.33264563022640        1.46251300778034        1.25785276602321
H            3.93742852257039        1.40644664633625       -0.41966612233455
H            2.39726131980804        2.19074210273738       -0.01355866142113
H            3.55935386287430       -1.59379772555685        0.09225827041751
H           -1.15483586278344        2.85676649720417        0.42028381884462
H           -2.33283663409751        2.64759763024870       -0.73353367092991
H           -2.59342982114907        1.95541216100769        0.91908119726535
H           -1.24526572126356       -3.33688171334432        0.78858536071051
H           -1.29373395268563       -3.25724096587065       -0.99358366246673
H           -2.63462117672614       -2.58260252786343       -0.00618735730100
H            1.34422684380876       -2.95877441959796        0.09875999025484
