25
 energy: 93.333654518826 xtb: 6.6.1 (8d0f1dd)
C            2.72944909864104        1.42785405103758        0.33362036488741
N            1.88841392698064        0.26593794508219        0.10664894351332
C            2.43745179431539       -1.01667862305290        0.25483999796865
N            1.42827850293263       -1.90343453300330        0.01918536376318
C            0.27857448445133       -1.24508962549001       -0.27655745639251
C            0.44391897622582        0.21436407342214       -0.32112955874914
C            0.29990410368303        1.37260267280143       -1.99612156106023
O            0.60965247466357        2.47894285645798       -1.88697075364882
N           -0.91747155777437        0.71511372704065        0.02344412819809
C           -1.47630558371694        2.07376463563725        0.28824072021541
C           -1.74849730298819       -0.36233932458448        0.15693234515173
O           -2.91571380593333       -0.33737053706905        0.45805221729549
N           -1.02569753645306       -1.54800002343860       -0.02251484090303
C           -1.65542718355039       -2.83085526269462       -0.06482182361483
H            2.91875030199515        1.55695671777480        1.40677131241836
H            3.72427660948161        1.50547459053837       -0.16277379074716
H            2.14093330129780        2.24268124535773       -0.03653893299187
H            3.48864557380247       -1.23292082946174        0.12350559352715
H           -0.77551677346869        2.65258835960523        0.85179133495868
H           -1.68065912299536        2.74280315771563       -0.54566952206761
H           -2.38262417355093        1.97821813701206        0.86688689935081
H           -1.35225289924674       -3.46696218738583        0.76947954243600
H           -1.40698912812637       -3.32696548613975       -1.00274916943507
H           -2.72608652684053       -2.65013448090184        0.01107447482256
H            1.52684567596345       -2.91059199712549        0.07009602551061
