25
 energy: 79.584300227701 xtb: 6.6.1 (8d0f1dd)
C            2.49137509070686        1.48032906447978        0.36615669672474
N            1.76465970039698        0.26104186205405        0.19704339259585
C            2.41021858816939       -0.96653445399441        0.08842055704317
N            1.45811540828034       -1.99079188488262        0.00745001008090
C            0.25241667820528       -1.35973818940611        0.00425921050026
C            0.41749823840979       -0.00961690796917        0.15341120028804
C            0.18463939063022        2.32742721597308       -2.43925481459605
O            1.11093966057378        3.02128622654384       -2.35608589045291
N           -0.83356448677151        0.57793390713450        0.29897456319254
C           -1.20941723974978        1.98514348078439        0.41892133027261
C           -1.74976727937934       -0.46023291198866        0.28681547644561
O           -2.94688361266030       -0.37974929945731        0.46779110944626
N           -1.06662945294818       -1.66127287320196        0.10453352142933
C           -1.71730403195106       -2.92819131549232       -0.03211387442546
H            2.51105771569061        1.65786589141747        1.43958555504419
H            3.53427117786028        1.45830871371781        0.00372879184771
H            1.96097436465150        2.26324230256905       -0.16013101159377
H            3.46255456340266       -1.12905480341123        0.06877058832075
H           -0.54641236545794        2.36996769599315        1.17019848915778
H           -1.13440946280230        2.62140429305331       -0.47674083437118
H           -2.23275382406480        2.04038905127208        0.76842693529582
H           -1.44320491653758       -3.59565396655332        0.78682517824280
H           -1.46937851780521       -3.39484784992313       -0.98625015855971
H           -2.78740680355964       -2.73330541651604        0.01260607632864
H            1.66632260963179       -2.95736952423074       -0.08524797830723
