25
 energy: 38.304987967079 xtb: 6.6.1 (8d0f1dd)
C            2.91389353912301        1.37765706197840        0.25496036112411
N            2.11151091519045        0.18976358827040       -0.03948523791516
C            2.52753895533509       -1.11417287123492        0.17067625355317
N            1.42774899177415       -1.91796709726609        0.06137711175959
C            0.33557602797194       -1.17253654870070       -0.28618727041282
C            0.74743253984947        0.18044921763737       -0.44122605051146
C            0.09757002643967        1.18185046815059       -1.19926901150816
O            0.40536346270806        2.28920166442626       -1.59480914881307
N           -1.20163461099433        0.89515275583410       -0.33181769741768
C           -1.75935630742797        2.13628459949592        0.16438496455682
C           -1.79047781484373       -0.28852041728565        0.00373144730614
O           -2.95044377778986       -0.41296700086793        0.36045202672194
N           -0.98570625837335       -1.45692351907106       -0.12072431957313
C           -1.59167651192551       -2.76739007529669       -0.07764384424662
H            3.17297470039763        1.50085933616604        1.32156458629861
H            3.85309097102133        1.47303809059532       -0.33336305852851
H            2.29090828432435        2.21351918708453       -0.01385973440558
H            3.54154310076996       -1.45184777170783        0.10685747145794
H           -0.99993172779518        2.76606321119206        0.58429171053093
H           -2.09889489391612        2.76985959891526       -0.65064409855300
H           -2.50801380986215        1.92085653943544        0.90599150099301
H           -1.28326198081085       -3.38252462569271        0.77366221176026
H           -1.33732416469953       -3.28843626576474       -0.99741847574010
H           -2.66675103301601       -2.60809128089668        0.00604498376546
H            1.41756211517282       -2.92999112191429        0.10516787872648
