25
 energy: -5.847963389461 xtb: 6.6.1 (8d0f1dd)
C            3.22510858698726        1.20449665403796        0.10760746104722
N            2.31946641702378        0.10134131489456       -0.00350140395115
C            2.61138344395400       -1.25544525531716        0.03607842322994
N            1.41845866824528       -1.94568956382345        0.00412247547288
C            0.39950277319300       -1.07300418897207       -0.04863419985895
C            0.92822525534933        0.21344418436380       -0.08159596355795
C            0.12709014186439        1.35954780407829       -0.15461937574728
O            0.48178020595598        2.54364179809953       -0.19339886574121
N           -1.26627753803713        1.01210235752281       -0.06623243070831
C           -2.17484601656573        2.14119478295903       -0.02022213422729
C           -1.82616948360287       -0.21985745465753       -0.03820519488412
O           -3.02650158029924       -0.40158652312202       -0.03372717382183
N           -0.94370566270988       -1.31757045601962       -0.04175835818917
C           -1.48738288016899       -2.65348509396369       -0.06602503802980
H            3.68202524926630        1.27244847640031        1.10379120653051
H            4.01454879196949        1.11065902185664       -0.64187440408254
H            2.65190921859398        2.11390747082565       -0.07355093554490
H            3.57866545572283       -1.70271967889151        0.04728708722667
H           -1.57211704075557        3.04320952713359        0.03214128960081
H           -2.75691695957010        2.18919204249281       -0.93542991388356
H           -2.83460353878169        2.06317657858306        0.84266650023915
H           -1.17870245835791       -3.21999451750297        0.81600596812811
H           -1.17069318190511       -3.17999556246115       -0.96904006206481
H           -2.57214364638354       -2.54659553526766       -0.06753372302712
H            1.34049000373752       -2.94804098413611       -0.00605067459039
