25
 energy: 83.982446027811 xtb: 6.6.1 (8d0f1dd)
C            2.51845778115783        1.48401927298542        0.37622051848702
N            1.75033034430092        0.27580415663024        0.22194069087534
C            2.40401599961994       -0.95554198767626        0.10122928481123
N            1.44882131333805       -1.97025510765689        0.00490218936647
C            0.25002790857556       -1.33647585667354       -0.05922206057578
C            0.40965307756868        0.02282050699794        0.03714269381821
C            0.21454650916644        2.12977994291750       -2.38586211569088
O            1.07981126224443        2.88082164186463       -2.21532493176645
N           -0.83257027083652        0.61077803045210        0.22048319713904
C           -1.24302693747440        2.02359182076167        0.40282283752651
C           -1.74492797231572       -0.43618938705947        0.25886406785972
O           -2.93556341171716       -0.35433794492490        0.46443923298257
N           -1.06158061124311       -1.64022426085718        0.08661730712867
C           -1.70967591178607       -2.91015429003500       -0.04418933615054
H            2.57793345938245        1.63396874539375        1.45592018166323
H            3.55348346549255        1.50574778440796        0.00872857672635
H            1.96731147596645        2.26206280348946       -0.12087502828916
H            3.44924474867219       -1.10997452363575        0.15543023169017
H           -0.55483932719431        2.43165285031507        1.12018478796641
H           -1.17616806965034        2.72602717116336       -0.44344978693816
H           -2.25465223093732        2.07503807275498        0.79040212059743
H           -1.42716557473521       -3.57072948993881        0.77723145118087
H           -1.46435552355118       -3.37501667121073       -0.99749661713350
H           -2.77918569952768       -2.71750378254490        0.00578678239843
H            1.63845921381924       -2.94154351817788       -0.06483793497292
