25
 energy: 25.219196979710 xtb: 6.6.1 (8d0f1dd)
C            2.96239386210717        1.35630352629535        0.22901165550495
N            2.15421916210834        0.17011007856552       -0.08594189514738
C            2.54744911823165       -1.14939441670940        0.13788545905496
N            1.42429399434388       -1.93671096476560        0.06095989502161
C            0.35225738903748       -1.16969163336054       -0.26865522681771
C            0.79782304371755        0.15072556002808       -0.48051449938383
C            0.06608639350387        1.19820198384495       -1.07086625332346
O            0.39560594393991        2.33533312791002       -1.40198737920389
N           -1.20948822158677        0.91754046152247       -0.32838723648157
C           -1.83200449990419        2.14026802690949        0.13757730839240
C           -1.78446634708919       -0.28242139102229       -0.00045968530042
O           -2.95670275145376       -0.42560610919466        0.31406454724100
N           -0.97590125452763       -1.44157087956542       -0.13471941915233
C           -1.57502961248716       -2.75413713466394       -0.07462866025722
H            3.25211781314517        1.48104537694440        1.28826955665804
H            3.88283591285836        1.43710871370936       -0.38696306459165
H            2.34270393902746        2.20554355056499       -0.01181206377357
H            3.54909276214482       -1.52176890925431        0.09584315528068
H           -1.09255486483560        2.81690793457532        0.50598364352486
H           -2.22397866497597        2.71199445863353       -0.69619441885043
H           -2.55247514315595        1.93291842097427        0.91287354689412
H           -1.26355397059565       -3.35853183807762        0.78349184770990
H           -1.31617517584173       -3.27605740971463       -0.99322491900651
H           -2.65075863483361       -2.59541618488007        0.00260370314876
H            1.38166723284782       -2.94561330781874        0.10337950130086
