25
 energy: 90.745000528862 xtb: 6.6.1 (8d0f1dd)
C            2.66961341417158        1.43854050053845        0.34827794082755
N            1.84171010516951        0.26993760159382        0.14672279578631
C            2.42598016026896       -1.00812329696542        0.24008205232853
N            1.43131427229722       -1.91690859928522       -0.00405754618789
C            0.27126367555413       -1.26968226226123       -0.23795019636538
C            0.43472164544561        0.16114622474691       -0.27820043692363
C            0.28668384865983        1.51079549957280       -2.12497718041379
O            0.76862782627570        2.54798202758642       -2.01882765681531
N           -0.88045587605142        0.68303141057319        0.07065443854734
C           -1.41634408026183        2.06161214908472        0.31604252553947
C           -1.73969801984461       -0.37615511185722        0.18931177212170
O           -2.90344214477487       -0.33188179171997        0.50549456261535
N           -1.03151302327315       -1.57356648624826       -0.00284397920945
C           -1.66926580209214       -2.85114655926155       -0.05688354354852
H            2.83131814165093        1.57211384049356        1.42377853448849
H            3.67621305333856        1.50891855333198       -0.11553383009388
H            2.09090947114311        2.24621740208021       -0.05200958775925
H            3.48489704381774       -1.19293036974827        0.17535419380086
H           -0.72170632106769        2.59452276133553        0.93026364368587
H           -1.55231811944053        2.74162609403693       -0.52163273613252
H           -2.37006276696760        2.01355962468567        0.82545643946383
H           -1.37078144967767       -3.48527217303816        0.78109153278637
H           -1.42762186439914       -3.34040555479681       -1.00242451000555
H           -2.73922570557707       -2.66567644626489        0.01609680935294
H            1.56214849491085       -2.91513270895620        0.05360150725171
