25
 energy: -2.973699820429 xtb: 6.6.1 (8d0f1dd)
C            3.19616466469134        1.23085404819041        0.13418837297145
N            2.32756717491140        0.09587304035133       -0.01822814384240
C            2.61744750019465       -1.27746351069300        0.04834869478960
N            1.40991239582378       -1.95423417772479        0.01467314914529
C            0.39420683119298       -1.08530193666192       -0.07432345648049
C            0.93472010864869        0.19577561363467       -0.14898372310416
C            0.13344931648062        1.32784628011488       -0.31643457902884
O            0.46170143947326        2.51633233512674       -0.41356821369211
N           -1.26473903120267        0.98108575486027       -0.13710799216756
C           -2.12489497967294        2.14020706825686        0.00955382738207
C           -1.83072670638658       -0.24187753934325       -0.02827637232181
O           -3.02966055198841       -0.42155021519976        0.03298661180965
N           -0.94957728950234       -1.33726801892913       -0.05483545056914
C           -1.50395180164653       -2.66809970634317       -0.07212819791435
H            3.61936981412064        1.32280759516371        1.14421979040445
H            4.01209254431764        1.17842451236862       -0.59632005293458
H            2.59998751227828        2.12311086810623       -0.05695080046735
H            3.57455400621784       -1.76020111373293        0.07003652259517
H           -1.47960909172075        3.00687441080737        0.10212968696877
H           -2.69457476133504        2.30040529901236       -0.89928775059460
H           -2.78537507785531        2.04612098303276        0.87010304717493
H           -1.19265812607811       -3.24520033524392        0.80209180382924
H           -1.19717994073788       -3.18958298119992       -0.98065693933004
H           -2.58771894394793       -2.54325275189346       -0.05841567556382
H            1.30630035495239       -2.95372415708164        0.00992252873440
