  25
        -42.09489150
 C          5.5927090288        0.0277102572       -0.2021038991
 N          2.0400305733        0.3824873130        0.0747568781
 C          2.4866799110       -0.8747399692        0.0618902534
 N          1.3948158646       -1.6746543439        0.0290878939
 C          0.2587146712       -0.9183384554        0.0211675241
 C          0.6688624424        0.4052305512        0.0505796217
 C         -0.2623608082        1.5052919233        0.0424290785
 O          0.0238428581        2.6783232001        0.0591686669
 N         -1.5814234683        1.0434670328        0.0082530577
 C         -2.6377729953        2.0415638109       -0.0037651385
 C         -2.0173119419       -0.2712141012       -0.0168371879
 O         -3.1851897491       -0.5522675602       -0.0444279010
 N         -1.0366078258       -1.2807060994       -0.0103070607
 C         -1.4535078038       -2.6665179335       -0.0394248753
 H          6.3727662291       -0.2298153132        0.4878500102
 H          5.7793391679        0.7783005085       -0.9457932080
 H          2.6128414574        1.2136263094        0.1051841308
 H          4.6286600272       -0.4510687803       -0.1248232237
 H         -2.1737559671        3.0256585156        0.0055222467
 H         -3.2534896164        1.9196707009       -0.8956229304
 H         -3.2778845257        1.9157934939        0.8703214920
 H         -1.0981380400       -3.1896528043        0.8493590759
 H         -1.0739643837       -3.1596518609       -0.9354779166
 H         -2.5427151371       -2.6857341862       -0.0547531737
 H          1.4457567499       -2.6824321583        0.0152830764
