25
 energy: -5.577943762973 xtb: 6.6.1 (8d0f1dd)
C            3.30618187666192        1.15599346356366        0.09029269225870
N            2.32327263324060        0.11442239886565        0.03017029382669
C            2.60004562839512       -1.24849019921484        0.03076340449652
N            1.39664474791383       -1.92110476862735       -0.00438672470710
C            0.39460880140472       -1.02191100125833       -0.01339850055523
C            0.92312837504223        0.26166927509557        0.00938833026608
C            0.07356264916450        1.40171620756376        0.00198417592942
O            0.44416513283601        2.57971750498349        0.00542703947988
N           -1.33011719262078        1.04717858839639       -0.03183147362561
C           -2.29043178309790        2.13808839837799       -0.04831573997999
C           -1.86862681291739       -0.19890389163712       -0.05665470327090
O           -3.05949299956461       -0.41625903793976       -0.07800735388078
N           -0.94652010235428       -1.26838160753016       -0.03853505996578
C           -1.44103375366301       -2.62206193411286       -0.05628496740356
H            3.78317070786138        1.21576921513982        1.08074313747539
H            4.11581014938863        0.97464233564182       -0.63348799562053
H            2.81981732570720        2.10149695349046       -0.12866632258386
H            3.56938242143690       -1.69193139138580        0.03863596105641
H           -1.70446445123050        3.05425329059147       -0.02107159105964
H           -2.90429631716331        2.10204787480270       -0.95072130135078
H           -2.96215354956290        2.07984076863537        0.81151869147521
H           -1.12417431433042       -3.17043537436624        0.83392017254842
H           -1.10323588959778       -3.14856419999978       -0.95224909995115
H           -2.52229615031923       -2.54586930814572       -0.06211799919455
H            1.31708112259631       -2.92650817264487       -0.01699422700775
