25
 energy: 79.857912315419 xtb: 6.6.1 (8d0f1dd)
C            3.70817763569851        0.89544056511341        0.10347786197332
N            2.49254014328190        0.14250809096277       -0.07742110476767
C            2.60516131021743       -1.19378077517291       -0.30373043389047
N            1.38015119975401       -1.76911026111913       -0.30718371684085
C            0.40259209335854       -0.83237503411686       -0.11651187757557
C            1.05632118123704        0.43718965968675        0.00459659154447
C            0.31074031166092        1.55277180454336        0.19366707828390
O            0.08537804047149        2.71694011058870        0.28684395093145
N           -2.04769151496574        1.11383736614736       -0.09027127525419
C           -2.93206189715676        2.21465477888099       -0.11937835497399
C           -2.50174154211024       -0.03482758615966       -0.10912304186400
O           -3.35478110771016       -0.82616942421084       -0.15708283793294
N           -0.87164987676896       -1.08089340327130       -0.01022723334756
C           -1.16474855392534       -2.50047580060748        0.01964587384584
H            3.88334642748581        1.37622542167012        1.07125021923177
H            4.51542012697210        0.11795318478088       -0.10837378365161
H            3.77862793536528        1.77937484693073       -0.52458690473883
H            3.49011175216726       -1.76945723907847       -0.28482297787465
H           -2.25838804594596        3.09525268805238        0.01837942732663
H           -3.48170460763638        2.23931200256786       -1.07658363477980
H           -3.68367142372182        2.05429010466810        0.66558920920667
H           -0.74670128708338       -2.97648947872701        0.90648930591809
H           -0.76683171988223       -3.00157880224624       -0.86880080877666
H           -2.22567873268638       -2.65290097168330        0.12112531877128
H            1.21690048984927       -2.75277529467982       -0.26782547005721
