25
 energy: 77.060960093713 xtb: 6.6.1 (8d0f1dd)
C            3.84063321856266        0.78349588608882        0.18789353404391
N            2.66829593451391        0.00069423121463        0.00801730755005
C            2.76777639384146       -1.33306417704253       -0.17920966861560
N            1.54002941796416       -1.89632575842214       -0.14764485463505
C            0.57064093381562       -0.92049701877155       -0.04139214387118
C            1.28516768245064        0.34063960667783        0.07069968436548
C            0.67026435462348        1.51735923610073        0.16741223564587
O            0.39266525417235        2.64001639929543        0.44994295798172
N           -2.63269528528923        1.14327410533811       -0.11975427295587
C           -3.30179688022885        2.36739556111922       -0.11121232425777
C           -3.10676900324800        0.05267857945415       -0.14465504922621
O           -3.60215887596601       -0.98490544062786       -0.17709694944979
N           -0.69038846115869       -1.07094642607932        0.00622824323447
C           -1.19077764943468       -2.43633717141079        0.11770966075425
H            3.66612312941864        1.67013833127728        0.81964473014358
H            4.52019830064765        0.05359160972758        0.61701088972451
H            4.24457704948825        1.30704329291579       -0.67433755286924
H            3.67912804914158       -1.85983985165829       -0.22276050309891
H           -2.53827990330520        3.15523510063451        0.04233663347250
H           -3.85244061201347        2.47572294347899       -1.05435544324356
H           -4.03781180437849        2.31357168836117        0.69291082498395
H           -0.63508243477656       -2.85293796054182        0.96264875301196
H           -0.95258998378269       -3.01876421491899       -0.78384807171881
H           -2.27452658562432       -2.44115298844960        0.28537921744183
H            1.35583472291202       -2.86685570510467       -0.29471970970410
