25
 energy: 66.484331550196 xtb: 6.6.1 (8d0f1dd)
C            3.19753616140868        1.10052064536327        0.11056837625689
N            2.38937121307684       -0.08055609509742        0.02174797458513
C            2.83214020369767       -1.34450327351706       -0.13229029066111
N            1.78488240050840       -2.20220496561656       -0.14924821740954
C            0.66500724439465       -1.49004823875638        0.06767482448200
C            1.01851239913105       -0.12983772720551        0.18538144523398
C           -0.16877450696356        0.64321397780744        0.43343851293136
O           -0.30907726013369        1.88367513799504        0.53849333936591
N           -2.38185835114710        2.75011119584091       -1.48485720429196
C           -2.66342253095855        2.86731919198343       -0.26265116309755
C           -1.23864469488572       -0.40526703978828        0.49141644548337
O           -2.43950281234727       -0.26052778754572        0.61232333174696
N           -0.65048572705769       -1.69141821825940        0.25754504051883
C           -1.41855369802454       -2.90219221152489        0.16402811237069
H            3.55906372180583        1.23624107528272        1.13004404808460
H            4.04835588986277        1.03003735472277       -0.56329676807692
H            2.58301819062030        1.95923736069472       -0.15563883864453
H            3.84513617064484       -1.61529237997215       -0.32269898556880
H           -2.48230697971483        3.78765170614701        0.31714580368625
H           -2.25798980692334        3.69448354541728       -1.86705933385889
H           -3.07452703106281        2.02551042994943        0.28602223208289
H           -1.10186958938422       -3.63238712823939        0.91087858904909
H           -1.35532041594766       -3.34529580946514       -0.83171506191668
H           -2.45427550945220       -2.61916246305198        0.34951182683252
H            1.84387926334936       -3.19429410882963       -0.27279555648465
