25
 energy: 12.047154484042 xtb: 6.6.1 (8d0f1dd)
C            3.22559601694169        1.17778637135573        0.13060674225837
N            2.32036934118289        0.07289078147162       -0.00170627657588
C            2.65316020162906       -1.27882611895164       -0.06721593740464
N            1.47352679930853       -1.99404930443133       -0.11438875197991
C            0.43899884674827       -1.13701441155956       -0.05331406694752
C            0.90763433289622        0.16390318095668        0.00421467270217
C            0.03623510518939        1.28723193200192        0.10981829395895
O            0.36610630422774        2.43956612794504        0.41323884689810
N           -1.33336364779360        1.08000863364387       -0.40119485267014
C           -2.25728781302006        2.24591266610274       -0.26092419941789
C           -1.77949316085630       -0.16546367959282        0.06467456284906
O           -2.94809644553548       -0.40925953210358        0.31583944850661
N           -0.90945811544220       -1.32020806678367       -0.00158278778708
C           -1.46926211022097       -2.65874448589003        0.04743043193366
H            3.66522357699082        1.24550973852386        1.13579524720605
H            4.02993383041676        1.09706731159638       -0.60978892736221
H            2.64473444682881        2.08004466063938       -0.05210318094962
H            3.63732453519627       -1.68935295460644       -0.12408284622019
H           -1.77350436813516        3.11887960561011        0.22493279534258
H           -2.61775009907173        2.50062196907567       -1.25203753405291
H           -3.10648127833794        1.99085301258839        0.40878583540437
H           -1.07842953489640       -3.26612212353652        0.87505018943676
H           -1.25883850230708       -3.18081172397281       -0.88790028346974
H           -2.54991512948857       -2.56023686676660        0.12052628222939
H            1.41841584932812       -2.99691270261893       -0.15152959042519
