25
 energy: 118.569615012724 xtb: 6.6.1 (8d0f1dd)
C            3.16164662018141        1.14320369470036        0.12226121199646
N            2.29118844571307        0.00473590352850       -0.04780408599325
C            2.70501127986519       -1.26255537460928       -0.12669428448772
N            1.61642435551394       -2.07428159476854       -0.19105586812206
C            0.52025538255002       -1.28427761542676       -0.09811648171906
C            0.92188877812172        0.03239701255762       -0.09415150972928
C           -0.36030139129442        1.05097373225632        0.15945966775325
O           -0.00207168095529        1.96635360418243        0.97692385373367
N           -1.41840570247492        1.72927525337610       -1.00835492524506
C           -2.36555106998235        2.62327468339288       -0.52376021470430
C           -1.42118125838006       -0.14114718354856        0.42011287256325
O           -2.55404007097723       -0.18415333963149        0.84078585797450
N           -0.79674931959126       -1.46586660815327        0.05644784716150
C           -1.46235288340720       -2.74435247878697        0.13004392118040
H            3.52005693956977        1.24433266594407        1.15182677247535
H            4.04654369534459        1.04398636772726       -0.51090013096191
H            2.59067707636294        2.03772389106739       -0.11347422249296
H            3.70278740844899       -1.59187413714799       -0.30508367905302
H           -2.11501732979858        3.24064408332430        0.33358414186626
H           -2.33952554091905        3.15866273896686       -1.46171304545941
H           -3.26640721733695        2.01294262412585       -0.36821604466599
H           -0.99944114513774       -3.37971085467326        0.88296956642416
H           -1.45780473213840       -3.23881253476776       -0.83836194309504
H           -2.49596415806843       -2.55250318841741        0.43504333029171
H            1.61404732550494       -3.06289173436518       -0.33466651928155
