25
 energy: 107.373072090016 xtb: 6.6.1 (8d0f1dd)
C            3.16539614675427        1.14519837946410        0.11949643799300
N            2.28271816704219        0.01708123960728       -0.06021422075495
C            2.68850860328569       -1.25273060857134       -0.16060866701881
N            1.59101661863605       -2.05683553495527       -0.21486101710214
C            0.49970227409284       -1.25633279187368       -0.11651455889895
C            0.91153483907745        0.05764197474949       -0.09708491232525
C           -0.32820936573218        1.09493890788531        0.18049696400478
O            0.04395724667041        2.04571963126657        0.95065370499177
N           -1.42384192215161        1.57317791160159       -0.90075494970540
C           -2.33773265635380        2.55054815679595       -0.47745214232285
C           -1.46464805816101       -0.09448786240286        0.36071780256073
O           -2.59445734525564       -0.19850744992957        0.79604768035778
N           -0.81748929811366       -1.42864282006647        0.01253862025231
C           -1.46963797786080       -2.71535897269227        0.12131732693539
H            3.49570179050271        1.23879198752142        1.16386778012593
H            4.05552086774874        1.04109506770096       -0.50272390141919
H            2.59563088083595        2.03631827760870       -0.12941940162403
H            3.68732343134563       -1.58843314309492       -0.33726218006367
H           -2.11065731179487        3.16355981662530        0.38969372835209
H           -2.22500992199843        3.09968326689683       -1.39691483522185
H           -3.27719792707618        2.01355538640134       -0.31936370078734
H           -1.01216241639028       -3.32887476250879        0.90048701658505
H           -1.46121188270459       -3.23269780745389       -0.83231428864056
H           -2.51202984251863       -2.54574236528726        0.39445908636065
H            1.57942402406254       -3.05154085191455       -0.32072694726300
