25
 energy: 62.955289191678 xtb: 6.6.1 (8d0f1dd)
C            3.20464808964794        1.09573993597356        0.11869533114154
N            2.39613230743427       -0.08908852612397        0.03114392069028
C            2.84101022939477       -1.34710555285975       -0.15083299652614
N            1.79160018956537       -2.21246933299636       -0.14198942355627
C            0.66909029841628       -1.50208266567432        0.09312968869386
C            1.02646972898974       -0.14680414529082        0.21264192592059
C           -0.15048130330080        0.63648607770588        0.44360112891755
O           -0.28322749559002        1.88033893605176        0.50782365781958
N           -2.48365605163103        2.76548542711967       -1.48252036843088
C           -2.65265467868422        2.85421651766968       -0.24065242573336
C           -1.23861908826325       -0.38319947926946        0.48841042431114
O           -2.44227129853660       -0.26164929970829        0.61589842491891
N           -0.65070285809973       -1.68810167146292        0.25762118661313
C           -1.42117754254818       -2.89779221973121        0.15964280883257
H            3.57385706019939        1.23591136320177        1.13723784882630
H            4.05407797077053        1.03166906502465       -0.56455248620472
H            2.58418979754659        1.95179466324797       -0.13876074460510
H            3.85356466246705       -1.62049235643247       -0.34424120907486
H           -2.50357862179783        3.76697620211614        0.34962009507755
H           -2.26443580071919        3.66737638631326       -1.94415287330076
H           -2.97537666945839        1.97418864739898        0.29374340305302
H           -1.10023433304050       -3.62653389827759        0.90754208328827
H           -1.34225241098906       -3.32641234584314       -0.84108973201042
H           -2.45962275364444       -2.61615719456999        0.34669980385229
H            1.86816508278610       -3.20378444706740       -0.28464777661141
