25
 energy: 32.478265365742 xtb: 6.6.1 (8d0f1dd)
C            3.20006541720993        1.16603077157397        0.13117556807030
N            2.30437979770444        0.05531380138210       -0.01986195644981
C            2.65594952989791       -1.26908063608546       -0.13167065584234
N            1.49947931515779       -2.00806064771343       -0.19406297323184
C            0.44273151369939       -1.17051523429576       -0.13755619379141
C            0.88855700333986        0.13359967988714       -0.03083303697478
C           -0.03098690134978        1.23629874146902        0.13309986274899
O            0.28391335896473        2.33279940467582        0.61591524123088
N           -1.35937124611095        1.15194491101367       -0.56901515397132
C           -2.27513788208846        2.29519954458978       -0.37782200479549
C           -1.71707758586049       -0.10771143646847        0.07772158898340
O           -2.84384525807963       -0.34145168965435        0.50139198333082
N           -0.90034378095423       -1.32709017196315       -0.09598448597644
C           -1.47508564703702       -2.65753054996993        0.07939510936763
H            3.59705600154329        1.24942669725136        1.15228895333195
H            4.03808843877978        1.09189820636892       -0.57146295325414
H            2.63385697090220        2.06528323526339       -0.09798220131844
H            3.64797691683747       -1.68272126727193       -0.20745439316301
H           -1.91956332954061        3.08965432241584        0.29586329431456
H           -2.48380469932074        2.69453045739269       -1.36020491103099
H           -3.18021249950912        1.97012353759991        0.17140643762227
H           -1.00819269575003       -3.26376057323959        0.87113049858321
H           -1.34509335015732       -3.19350635644111       -0.86351232321316
H           -2.54679938803874       -2.56065795503918        0.21655946502803
H            1.45561883002509       -3.01320420156812       -0.22238706087245
