25
 energy: 108.704393805688 xtb: 6.6.1 (8d0f1dd)
C            3.17137828850943        1.12419742406128        0.10931408197991
N            2.33943940739738       -0.03295570129691       -0.02788257669023
C            2.78608243422937       -1.29298926398666       -0.18152626100620
N            1.72421962261965       -2.14670340225310       -0.14304700767821
C            0.60229859964956       -1.42228273467452       -0.00194136331123
C            0.96170073351556       -0.07504117719963        0.07943269959052
C           -0.20138048343019        0.73153590901403        0.39786586699834
O           -0.21805902709678        1.88752485121873        0.87045932349454
N           -2.01909781138700        2.56817003957940       -1.49284703760242
C           -2.54955308434707        2.78407195850350       -0.36538506788894
C           -1.28859499072458       -0.31240588551750        0.49941865689421
O           -2.42949480758023       -0.17167694557921        0.91467791696023
N           -0.70652897711000       -1.62864229251011        0.17905167149543
C           -1.45123929167780       -2.85263670245134        0.14290138234774
H            3.51377740381481        1.23012341144946        1.14557705100232
H            4.03006569856823        1.04998369807792       -0.55453474797532
H            2.58928171176342        2.00145347862872       -0.15854191518214
H            3.79464815036379       -1.57524626590832       -0.30656875908172
H           -2.26258296941190        3.60382992655622        0.28918981167784
H           -2.35404414561239        3.50685167553020       -1.71980169444069
H           -3.24407814988860        2.06032877238141        0.00824177693894
H           -1.04405252223373       -3.53061154408868        0.88499049076319
H           -1.43493121260743       -3.29252907402675       -0.85346475791670
H           -2.49213280468452       -2.57323119940816        0.37497831059738
H            1.74371308857336       -3.13145372334426       -0.29262540290773
