25
 energy: 62.017258895347 xtb: 6.6.1 (8d0f1dd)
C            3.20809113932449        1.09512065324319        0.12241325270280
N            2.40422346674706       -0.08862415121854        0.03680042868513
C            2.83914364995664       -1.34770161664262       -0.16945333278924
N            1.78543371966928       -2.20966448346877       -0.14038147408130
C            0.66839551657638       -1.48740887148044        0.09243372919757
C            1.03555753492950       -0.13933163477117        0.21045271762524
C           -0.13764841737002        0.65034071802117        0.42761564679635
O           -0.26275148587528        1.87903040911535        0.55830342835837
N           -2.56801539532431        2.76916910426586       -1.47975048379636
C           -2.66927126338102        2.85336395405259       -0.23480675250215
C           -1.23135227920064       -0.36335000500176        0.45773963174923
O           -2.42473956728576       -0.22834837823160        0.63803003011903
N           -0.65694297150102       -1.66287133621451        0.23916983224748
C           -1.41979907991238       -2.87792420160647        0.15037544893372
H            3.57780697992138        1.23592738208052        1.14155821896845
H            4.05804822421404        1.02800827310391       -0.55639212265274
H            2.58915220316666        1.95178174920106       -0.13938760850439
H            3.85418491563608       -1.63205641561278       -0.33629967990751
H           -2.46342155886304        3.73565040305824        0.38190755590785
H           -2.24164541132146        3.59591867140128       -1.98381571520883
H           -3.00129035462533        1.97241757419787        0.30055062384395
H           -1.09234882379329       -3.60117643656073        0.90102162808422
H           -1.33630787064870       -3.31987502570229       -0.84563414895508
H           -2.46122732786596       -2.61457046107249        0.33656276265235
H            1.85893876179962       -3.20479708541308       -0.28197970527964
