25
 energy: -5.218627572511 xtb: 6.6.1 (8d0f1dd)
C            3.23890074409713        1.17927568729595        0.09858718440549
N            2.30705276113938        0.10143710498926        0.03244781735068
C            2.61322220233826       -1.24465280619452        0.00769307670643
N            1.43361919120863       -1.95124622899913       -0.02666086612290
C            0.40756514296166       -1.07969573658558       -0.00412682020728
C            0.91249007518946        0.21166938793768        0.03691461844088
C            0.09162656646935        1.36039869957730        0.03067153466440
O            0.45812873785659        2.53844287590859        0.10131327330526
N           -1.30387140383735        1.04987673969810       -0.11362752555608
C           -2.23486618421905        2.17398618640765       -0.09936702422676
C           -1.82521300973370       -0.20238847767675        0.00242513095127
O           -3.02098075219740       -0.41154660794340        0.03108040890420
N           -0.93566126152402       -1.30803695616898        0.01003109231819
C           -1.47105707874926       -2.64940176794845       -0.02785518114093
H            3.71065272006572        1.23367964009730        1.08592102947978
H            4.01681245344912        1.05289912489535       -0.65869648562625
H            2.68363858879364        2.09800202642063       -0.07990692479648
H            3.59176622304886       -1.65775097257298        0.00195544000351
H           -1.67630264613088        3.10044357717307        0.04975137794474
H           -2.77982817883960        2.20151078560664       -1.03903289012007
H           -2.94244152457813        2.04879403856505        0.72179121504741
H           -1.14763198187165       -3.21791842733333        0.84700840681511
H           -1.16789833327200       -3.17726370060907       -0.93530931252585
H           -2.55579703762152       -2.55782229071051       -0.02598158636382
H            1.38434237012181       -2.95551945886646       -0.05057075211791
