25
 energy: 81.619281508764 xtb: 6.6.1 (8d0f1dd)
C            3.17791774359225        1.11237155225851        0.10984948848766
N            2.36454383182834       -0.05621027140213       -0.02442362529267
C            2.80700527724378       -1.31112535433201       -0.22086756925025
N            1.75208801762190       -2.16955703211632       -0.13060236148862
C            0.63258461623646       -1.43389488583421        0.03301165026433
C            0.98953691987237       -0.08716806958244        0.12025404613849
C           -0.17738795746570        0.68345925222808        0.42703613634226
O           -0.23029403208746        1.89051636407423        0.71616837650356
N           -2.21113061155149        2.66544480744728       -1.48910525599424
C           -2.64683679777265        2.86489384453065       -0.32587059850179
C           -1.25189015536068       -0.32554673341253        0.51406740636223
O           -2.43435147497456       -0.17516558486561        0.79837074429344
N           -0.68923658425398       -1.61879376771009        0.20252011084351
C           -1.43029521722874       -2.85253315735931        0.15627695141402
H            3.52790492533782        1.21572770546816        1.14018932225502
H            4.03933123070114        1.04750366685611       -0.54645442990097
H            2.57689416644056        1.98732038256543       -0.12342349365447
H            3.82869063969919       -1.60617751989542       -0.29904735830790
H           -2.34257579199520        3.69808319398539        0.29154922735173
H           -2.23526618997875        3.58545243743854       -1.81332067024864
H           -3.24054720418016        2.11961580777912        0.13704876228640
H           -1.06280065858574       -3.56283077765549        0.90376223998174
H           -1.38775756520662       -3.31525281596806       -0.83937693766808
H           -2.46177338648124       -2.57791057802224        0.39901906424370
H            1.79059301172604       -3.15778788315266       -0.26335698384075
