25
 energy: 98.438718660052 xtb: 6.6.1 (8d0f1dd)
C            2.75339075046733        1.20978351901806        0.11065512744541
N            2.11407795677570       -0.07355538176520        0.07280493139435
C            2.71331587176712       -1.27187908560369       -0.02518546577925
N            1.75368093534531       -2.24627438825000       -0.03483653655225
C            0.52096809775812       -1.64104535534536        0.05422667691032
C            0.75193770130681       -0.27371916655220        0.12068401807833
C           -0.38001932234367        0.62515172419176        0.18919854312393
O           -0.26320085763239        1.87456828274116        0.22322424232473
N           -1.56847057356530        0.00532760033817        0.18901907605539
C           -2.66434420259974        4.14181836488389       -0.34089373150088
C           -1.82602413758744       -1.27837846253509        0.14824956592607
O           -2.64642106045625        2.86393425116795       -0.07018084989106
N           -0.70783393208108       -2.16686998787376        0.05761471238248
C           -0.92108269517319       -3.59707920209634       -0.01386803729140
H            3.42140875269228        1.28342373094759        0.97210063161460
H            3.34045746933451        1.36733435095323       -0.79712121449483
H            1.97517362657386        1.97230326374802        0.18258618687798
H            3.76729249585013       -1.43185156713074       -0.08530316926530
H           -1.71305708512456        2.44142785321128        0.07258334035753
H           -3.62607465336013        4.56491393469078       -0.57874503894677
H           -1.77570550172493        4.74973970038775       -0.36421816529031
H           -0.50689988287203       -4.11286427878070        0.85894320394075
H           -0.48066589131306       -4.02745821415867       -0.91972634945080
H           -1.99439313815223       -3.76080778271973       -0.03490719251521
H            1.93346699348807       -3.23175739811012       -0.10777278968470
