25
 energy: 90.894491318467 xtb: 6.6.1 (8d0f1dd)
C            2.96018563407150        1.22783858032479        0.10796511060221
N            2.16729541261561       -0.01677381291730        0.05387973885476
C            2.53742222194685       -1.29551872331756       -0.03420654268880
N            1.43932148623945       -2.09847716205680       -0.07105588427084
C            0.26888061609930       -1.32032147093638        0.00390298940500
C            0.78369853718745        0.00065181471094        0.08645379915911
C           -0.04850063033012        1.11254059920591        0.32315684677613
O            0.35016276020828        2.25023326282793        0.54603578068833
N           -1.36751451784413        0.79067326535980        0.29092205130893
C           -1.94535403116877        3.13062779309614       -0.32334415782518
C           -2.40396984781309        0.26726525776541       -0.01607789430937
O           -3.52253610354413        0.44174690072227       -0.25402686191796
N           -0.96476708998458       -1.66482071680273        0.00461881765418
C           -1.25604456125257       -3.05083176185099       -0.02454637420245
H            3.61691324370593        1.27472223841925        0.97327591288281
H            3.57067428128283        1.41781586524104       -0.78322239173931
H            2.24969494993251        2.06152234505959        0.19572710670445
H            3.52169163863611       -1.71677196532869       -0.09251984131561
H           -0.94783010565882        3.09429208339252       -0.70695814211341
H           -2.76942813215185        3.05899615683450       -0.97953081243786
H           -2.17360609591822        3.30090544882288        0.70300574105687
H           -0.81564012386820       -3.53228387824937        0.85408163744252
H           -0.80710638257140       -3.48790606929862       -0.92019887887965
H           -2.34985353080689       -3.12911338179282       -0.04187245252648
H            1.45391305583094       -3.10186135065107       -0.14531026756088
