25
 energy: 63.420393737396 xtb: 6.6.1 (8d0f1dd)
C            2.99840386174847        1.22354462428078        0.10861080879166
N            2.16504776214231        0.00839337174501        0.06367430540010
C            2.52854640029091       -1.28747870577042       -0.02672356275223
N            1.40166314978800       -2.06535756447748       -0.08540141100603
C            0.25547661063532       -1.26538813382119        0.01410153857160
C            0.76431353224774        0.04866818587688        0.09263836880979
C           -0.03362850283889        1.20620300258586        0.24848623864804
O            0.46770483528358        2.31504453132916        0.47096706929767
N           -1.41901136019453        1.15286166084636        0.04612591538650
C           -1.89089410166333        2.66399893251822       -0.20816571305444
C           -2.33580882847536        0.19661260848802        0.03232568163778
O           -3.48046451920172        0.37390529543544       -0.25088329986477
N           -0.99424128488665       -1.58869758619378        0.03989206288508
C           -1.30104777019721       -2.97741352154167       -0.02759292043007
H            3.63309914139400        1.27439667411770        0.99249105199955
H            3.63723699241703        1.36990694873502       -0.77102364989385
H            2.31063293610315        2.07736383319290        0.15775461834964
H            3.51366122087437       -1.71938732372140       -0.06505965812235
H           -0.95719094589238        3.09811444573885       -0.54813191284954
H           -2.68559637762502        2.80341088885175       -0.93829471792710
H           -2.26519365078151        3.11996159940118        0.71553136939583
H           -0.87211608274544       -3.48041467572848        0.84516858562578
H           -0.85652304854850       -3.42040032546808       -0.92501896976794
H           -2.39149206210022       -3.05369741040976       -0.04872529289892
H            1.40107250722368       -3.07146153802292       -0.13142433416154
