25
 energy: 99.224092007052 xtb: 6.6.1 (8d0f1dd)
C            2.75294507521365        1.21869942666586        0.10806194104833
N            2.12754367400838       -0.07289345668595        0.07016228581045
C            2.73111372789360       -1.26909258902789       -0.02317197095250
N            1.77293058529902       -2.24546740582662       -0.03491257229172
C            0.53412265023646       -1.64859815405026        0.05258533471945
C            0.76413003104408       -0.27820260258279        0.12852416115107
C           -0.37297270657480        0.61300316426083        0.20894627822187
O           -0.28760594230222        1.86721771312522        0.22328318143020
N           -1.54749880669412       -0.02888309007169        0.24586635948865
C           -2.67345131059317        4.13974755202852       -0.36184421418399
C           -1.80623722857498       -1.31367201849154        0.12881576302788
O           -2.63699885430096        2.86217905086237       -0.10455275818641
N           -0.68841084625471       -2.18861249096983        0.04951447143766
C           -0.91315229854491       -3.61879009646534       -0.01353909066649
H            3.41733815355866        1.29104704198416        0.97085321313168
H            3.30948057794616        1.39879230133525       -0.81225570895638
H            1.96610085772091        1.96679572850253        0.18541584999967
H            3.78302627585826       -1.43446054746759       -0.08373355223992
H           -1.68084814432720        2.50516048922211        0.10177558379860
H           -3.64637150972988        4.54434223533300       -0.55995133733986
H           -1.79183714334965        4.74442745491004       -0.39057768457273
H           -0.50135944674898       -4.13361478429733        0.85943751221216
H           -0.48129229580373       -4.04561162796199       -0.92134846157388
H           -1.98910177629426       -3.78696516881144       -0.01749558716218
H            1.96287109335091       -3.23072539494718       -0.10562505907337
