25
 energy: 93.956835405809 xtb: 6.6.1 (8d0f1dd)
C            2.92270617825540        1.23548869257544        0.11093075373984
N            2.15545180416684       -0.02142944998668        0.04997761662864
C            2.54062533198553       -1.28961747665954       -0.04335999196059
N            1.46618027633446       -2.11462094021936       -0.07753735563608
C            0.28122253641826       -1.35733356865961        0.00442101669436
C            0.77718100010025       -0.02315758016802        0.09073611964060
C           -0.06602191667667        1.06897197950573        0.34955677670527
O            0.26759892865183        2.21774885907745        0.59736483656867
N           -1.35399978339470        0.61884663587480        0.33828022206380
C           -1.94754811258377        3.25147629218002       -0.35379959621404
C           -2.44715279728901        0.30840823176640       -0.01272886209777
O           -3.53302899788904        0.60925457624374       -0.27562193944320
N           -0.93656404614512       -1.72668276648585        0.00945677657502
C           -1.21775832297365       -3.11100252392820       -0.01897468502442
H            3.60271058841228        1.26747675035352        0.95679517181414
H            3.50269593114235        1.46189767593113       -0.79206168691793
H            2.19879929897629        2.05185505069168        0.23777016639912
H            3.52770283121569       -1.69440599033126       -0.10707952790313
H           -0.99740698828883        3.07369324646619       -0.79626915961754
H           -2.81600495443678        3.19310748928029       -0.94761817249714
H           -2.06104468760421        3.39713621788542        0.68937280618727
H           -0.76859967435625       -3.57783580990460        0.86155825691043
H           -0.76201674536005       -3.53422639842372       -0.91604675002921
H           -2.31232001512643       -3.19366383847625       -0.03627014850283
H            1.49956161168096       -3.11671152014256       -0.15155335289834
