25
 energy: 109.824094704336 xtb: 6.6.1 (8d0f1dd)
C            2.71013528562573        1.22403610342928        0.13727921548351
N            2.12200803016602       -0.08556344214911        0.06593335586894
C            2.69614542442913       -1.28570492067101       -0.03329441189400
N            1.72782228753652       -2.24670201634296       -0.04396732366790
C            0.50301604268387       -1.62748743023364        0.04692861153618
C            0.76950143702272       -0.26616004078034        0.11395016539363
C           -0.33065220430056        0.64718934025464        0.24159686890354
O           -0.19789926013909        1.88644618400896        0.34149530751406
N           -1.50876531812036        0.00459736269106        0.27445124624245
C           -2.55176144105350        3.92063683092751       -0.29305737997387
C           -1.88492658386964       -1.20056150419010        0.06439057099239
O           -2.62574947892894        2.59512889322625       -0.12863591920029
N           -0.72294557278561       -2.12430986105251        0.04112702592606
C           -0.94014028452725       -3.52922987146946        0.00049786529386
H            3.51065305702124        1.24933443890681        0.87667525722566
H            3.05737915465365        1.54139378003608       -0.84823068378149
H            1.93239923317333        1.92748634058804        0.44272588249608
H            3.72989860334391       -1.47284582335191       -0.14389369310666
H           -1.70859284504828        2.46589482638686        0.14968171065707
H           -3.42215615596931        4.32033421142982       -0.71566749685445
H           -1.68393593395513        4.53240150629522        0.00111947903229
H           -0.47793783149423       -3.98477690239044        0.88305049316523
H           -0.48008733237975       -3.92138878979593       -0.90850117954020
H           -2.02906486496579       -3.67051073380841       -0.00418453292631
H            1.88968101329350       -3.23344719025140       -0.12799706513091
