25
 energy: 99.789483863550 xtb: 6.6.1 (8d0f1dd)
C            2.85862162837091        1.23888571979554        0.11726113717479
N            2.13587080808466       -0.03349533018936        0.04291696761078
C            2.55946480724623       -1.28193899353320       -0.05919072671240
N            1.52624719975327       -2.14981614662422       -0.07954224953433
C            0.31822288675178       -1.43875358021767        0.00304058339314
C            0.76640598177630       -0.08387293935267        0.08677928610997
C           -0.11179650935368        0.94792939563911        0.37149847994467
O            0.13016511568269        2.10503789565128        0.66404086454348
N           -1.36735622482506        0.32359377435196        0.38942912578416
C           -2.00251439641604        3.44406707039109       -0.36625652025369
C           -2.46767604799292        0.34142922571742       -0.02815318468361
O           -3.45950057172280        0.88650638286283       -0.31832050245968
N           -0.88062589274805       -1.83949511156381        0.00395721774184
C           -1.14483585882477       -3.22184442052880       -0.00782784687823
H            3.58603061188920        1.24408996006906        0.91992780992750
H            3.37429302768526        1.51778214716406       -0.80686078719360
H            2.11633733151505        2.02100650629215        0.31855112439362
H            3.55894987518906       -1.64039060986922       -0.14493872125198
H           -1.20753443539208        2.89490463342241       -0.78904356435541
H           -2.93579819449727        3.46405990367386       -0.84571233633778
H           -1.88034004739754        3.68921425065004        0.65468950074698
H           -0.67570513302897       -3.65893924550172        0.87718371511877
H           -0.67737892684668       -3.62783703060047       -0.90526220828500
H           -2.23949735920566       -3.31531714217679       -0.02210415196709
H            1.59776175412310       -3.14793735422667       -0.16072019075422
