25
 energy: 136.626154867079 xtb: 6.6.1 (8d0f1dd)
C            2.77040887187911        1.23193021554470        0.12626565912011
N            2.11426821298706       -0.05810323755454        0.04109759839722
C            2.59573298322708       -1.28485354087292       -0.07029656726474
N            1.58118789514391       -2.18717974190545       -0.07075401578887
C            0.37501720018875       -1.50629629618325        0.03029657739840
C            0.75382445827439       -0.16898920472208        0.12175835792581
C           -0.24561134741921        0.83730714424930        0.34159373103228
O            0.01691290641813        2.00784162395392        0.59824343201976
N           -1.47419348777088        0.25701006991885        0.21226122287651
C           -2.28957438073483        3.27253591212614       -0.26011709036874
C           -2.01668979722771       -0.85635012217062       -0.04557463850230
O           -2.81820351947244        1.99284069951541        0.02183967915586
N           -0.86746622872490       -1.94031093234517        0.02334755973400
C           -1.08634200033765       -3.34124103174532        0.00474765169729
H            3.57987856441653        1.20595343652389        0.84951346512767
H            3.16369430812624        1.58035700448197       -0.83249566844693
H            2.00710353217850        1.95347373771617        0.44426165613226
H            3.61503973027299       -1.57236834105727       -0.16513210904790
H           -1.46466160083564        2.89290798857597       -0.80919911524933
H           -3.00640184431497        3.84776766606202       -0.85506524881181
H           -1.80686061461456        3.92137901450233        0.48627914202079
H           -0.59153418858333       -3.76823380382559        0.88647762176778
H           -0.59343785184227       -3.73128524422248       -0.89117365790459
H           -2.16772917370882       -3.49006880379250       -0.00725688949884
H            1.70543235805366       -3.18088483695573       -0.15950477203434
