25
 energy: 126.797394376727 xtb: 6.6.1 (8d0f1dd)
C            2.72295078751247        1.23621401999396        0.14938304291949
N            2.12064066482901       -0.06959358480238        0.06198379664223
C            2.65219387385855       -1.28044286428645       -0.05595379420456
N            1.66730559557166       -2.21967570165563       -0.06171636393222
C            0.43679526019515       -1.59258792425937        0.03188637435872
C            0.75688407181303       -0.22662914802339        0.12784263643621
C           -0.27065575106045        0.70170321802824        0.30628709351800
O           -0.12763652159818        1.93894320248659        0.44216285018214
N           -1.47567968363561        0.07391195250774        0.30699876293656
C           -2.44069758931645        3.75551618236812       -0.35611201679848
C           -2.05000813655446       -0.99232558652732        0.01250486635846
O           -2.57730090159683        2.41801279011090       -0.18701467389607
N           -0.76000548120760       -2.08770678880004        0.01186928358022
C           -0.99033168117352       -3.46853091806511       -0.00241479744413
H            3.55291020128156        1.22666556649366        0.84910142892822
H            3.03384434632349        1.60672169114371       -0.83072662686997
H            1.94124036606128        1.90562227856483        0.52152761725180
H            3.67925090921251       -1.50622929894303       -0.15884607911136
H           -1.62428913442707        2.32447325294817       -0.00600379255338
H           -3.29366408054901        4.18796729743977       -0.73895082145831
H           -1.62337539434016        4.30226550243617        0.12135169855956
H           -0.51689540179519       -3.90111025489364        0.88657839493085
H           -0.52364874254091       -3.86392075790161       -0.90540945349173
H           -2.08073477735251       -3.58676953096181       -0.00687687241401
H            1.80777808974313       -3.20773902276660       -0.15460088898341
