25
 energy: 107.334019438268 xtb: 6.6.1 (8d0f1dd)
C            2.72440691939534        1.21651951434026        0.12446544661228
N            2.13007660982824       -0.09108121909364        0.06503430977151
C            2.72105699407516       -1.28449873628905       -0.02905600017788
N            1.76199669246935       -2.25595775852372       -0.03690633180211
C            0.53341897262000       -1.64769375141361        0.05663516013365
C            0.77971192223069       -0.28265623901555        0.12609596360280
C           -0.33022932109335        0.62868983935210        0.24495827284422
O           -0.21560984853398        1.87236238674378        0.30733222119238
N           -1.49930300858992       -0.02099241937525        0.30472811422037
C           -2.61000590728247        3.98445059542990       -0.29404834583839
C           -1.84972706572199       -1.24027088173834        0.09476266860018
O           -2.60507470408611        2.67064294491559       -0.10759685897791
N           -0.69012234455944       -2.15457942941012        0.05267433659958
C           -0.91814462058062       -3.56295364033498       -0.00074099788455
H            3.48837690346751        1.25806987290658        0.90239932525477
H            3.12398537706769        1.49959459297379       -0.85118948425756
H            1.93962120688241        1.93541638366665        0.37471692219649
H            3.75662710602778       -1.47031905573872       -0.13530319175822
H           -1.66336269912819        2.55858666032930        0.17732164648339
H           -3.50764459098690        4.36756815558472       -0.68222605123564
H           -1.74393567036432        4.63771985450428       -0.09220355619919
H           -0.46867146971286       -4.03316526008287        0.88000017789104
H           -0.46637352609078       -3.95868558025320       -0.91210930499508
H           -2.00638268142699       -3.70851516003779       -0.00383376244739
H            1.93090088578514       -3.24222132166849       -0.11918263650466
