25
 energy: 131.485393774959 xtb: 6.6.1 (8d0f1dd)
C            2.74486032132416        1.23726459571343        0.13755068268758
N            2.12233390122937       -0.06402188829256        0.05308528283689
C            2.63243463213027       -1.28385121484848       -0.06394916699362
N            1.63420594941712       -2.20778358785057       -0.06692013905038
C            0.41039613575228       -1.56012179706307        0.03190713422462
C            0.75970147365521       -0.20448018554931        0.13623597706308
C           -0.25033573350648        0.75125829349359        0.31737636729553
O           -0.07681948369814        1.97954741097204        0.47056175764068
N           -1.46908755877348        0.15431793706494        0.25952973199793
C           -2.42316534514342        3.65768778875940       -0.35995201487817
C           -2.05363499307702       -0.90943271226796       -0.01017585761382
O           -2.59608410380122        2.32172325239605       -0.21727390163513
N           -0.79669577031916       -2.03611824550173        0.01559401465584
C           -1.02971442970024       -3.42217523281051       -0.00227201931446
H            3.56567719667125        1.21356015573089        0.84555983355999
H            3.09924814827946        1.59933618502224       -0.83147105980160
H            1.97331151984773        1.93389566818584        0.48186772667030
H            3.65594004007876       -1.53965967004844       -0.16568827851665
H           -1.62632377637237        2.26898970883486       -0.11586319679490
H           -3.24843617027185        4.12960936796207       -0.78436769389280
H           -1.63362119377860        4.17555229853106        0.18725555834442
H           -0.55100225359361       -3.85065767482928        0.88524174664589
H           -0.55440617798705       -3.81395440171136       -0.90324463719203
H           -2.11669744287699       -3.54096647715629       -0.01041866487163
H            1.76366840730605       -3.19792311086924       -0.15925340781254
