25
 energy: 4.738599648054 xtb: 6.6.1 (8d0f1dd)
C            3.14715331620891        1.20977151992448        0.10369080048844
N            2.25493500639146        0.07745681305798        0.04879030173524
C            2.56100012070941       -1.28404319684479        0.01913027549831
N            1.35621259573081       -1.98263520892812       -0.01242033735005
C            0.31890626546635       -1.11284093975933        0.00934879759402
C            0.85627879228044        0.16319321766027        0.04680643113838
C            0.05178686967497        1.30189435666774        0.06137531225227
O            0.47536274124137        2.46494641876066        0.12891915936553
N           -1.36052071322186        1.07196201778094       -0.01319228052376
C           -2.09110188692795        2.34540871203840       -0.10272820715453
C           -1.96075523466314       -0.14919928510479       -0.04888237689482
O           -3.16650283605085       -0.23290950554376       -0.12261845798702
N           -1.04649470369518       -1.32167959056587       -0.00452123262881
C           -1.43623099515303       -2.72254842423515       -0.04444160244023
H            3.70115822885695        1.27193491700795        1.04878951975367
H            3.86876135251107        1.20109284659870       -0.71979742157120
H            2.52840996711334        2.10502209483690        0.01813988773410
H            3.54087338506016       -1.72148813325217        0.00315628468101
H           -1.27300588673545        3.06242691618319       -0.15471725862702
H           -2.77211010853263        2.41610374452287       -0.95504484346306
H           -2.69260296544882        2.53964013924342        0.79275561344638
H           -1.05348581852197       -3.26267775286181        0.83163952636030
H           -1.03217820414937       -3.22479757561124       -0.93389009896026
H           -2.52105715601869       -2.76162852669288       -0.06312843477545
H            1.28265981731807       -2.98816282467865       -0.05230447172702
