25
 energy: 41.953159139225 xtb: 6.6.1 (8d0f1dd)
C            3.04450006441762        1.22322809148626        0.10817315250137
N            2.20406249878495        0.03019807060602        0.05959167115574
C            2.53466411441519       -1.31294932746446       -0.01825398999512
N            1.34015523426432       -2.03268906902473       -0.06759986337544
C            0.26355614715335       -1.19228334200838        0.01412813579197
C            0.80346899257913        0.08909169370353        0.09231224658136
C            0.02592129445975        1.23312349883579        0.21391036329240
O            0.49286885604812        2.38095178970107        0.37415228644179
N           -1.37765807440791        1.11529125474030        0.05622928113378
C           -1.94565869257561        2.54565438779940       -0.17574875731899
C           -2.14423842709396        0.05284549521500       -0.01948069491058
O           -3.31762155628672        0.03876466384489       -0.20539761570900
N           -1.08014666146987       -1.42347277949234        0.03207889582621
C           -1.37407268750502       -2.84018902206163       -0.03384976864678
H            3.65681223445474        1.27954971006755        1.01156150424780
H            3.70538920259491        1.33535206877831       -0.75981360621179
H            2.36479400441792        2.08344773592969        0.12157932934561
H            3.51239719556946       -1.75927430692360       -0.04875384288294
H           -1.03596459313789        3.08379843518316       -0.42904011650215
H           -2.71073345684040        2.69654232608792       -0.94645979777359
H           -2.39140672909528        2.95391130041507        0.74119585204245
H           -0.93370851776304       -3.36332430384211        0.83281669720755
H           -0.91815587552517       -3.31055535698854       -0.92153646937721
H           -2.45235356063542       -2.97134559586227       -0.05370807198521
H            1.32905819801266       -3.04140256988821       -0.11531766197866
