25
 energy: 102.780474758703 xtb: 6.6.1 (8d0f1dd)
C            2.82902635289702        1.23133074270534        0.11973999504358
N            2.13906526187017       -0.05196686871637        0.03911308841053
C            2.58456135384633       -1.28817383989745       -0.07346765506606
N            1.56569046914090       -2.17420987962253       -0.08114950087055
C            0.34581502374005       -1.48554176749489        0.00485156739327
C            0.77752507559243       -0.12960504945759        0.10127619366825
C           -0.13171957544450        0.87595478307458        0.38787153529796
O            0.07691458290818        2.03973569956735        0.68537485342036
N           -1.36322023395647        0.21903426060807        0.37624410692289
C           -2.05823224524796        3.47017165746880       -0.35773151674220
C           -2.47878718534640        0.34428131429699       -0.03929050005336
O           -3.38044101152140        1.00576876640868       -0.32416045276457
N           -0.84901821907398       -1.89982792610417        0.00747193553301
C           -1.10681425578598       -3.28650159818606       -0.00225087633984
H            3.58454720132959        1.22911510479978        0.89755447889414
H            3.30232487657690        1.53098079842015       -0.81741548112892
H            2.07787915815067        1.99205144857880        0.35962420660740
H            3.59322666674692       -1.61388289509762       -0.15809674971553
H           -1.35649551884608        2.81395652613819       -0.77116140313662
H           -2.97180371457529        3.65407035842962       -0.81699690823359
H           -1.77781639584748        3.84257100342263        0.58619064375370
H           -0.63410990304588       -3.71300920282509        0.88555711080547
H           -0.63515275770058       -3.68447686724559       -0.90055393191413
H           -2.19892207416503       -3.38740384231084       -0.01531473614598
H            1.65487580013349       -3.16944398784131       -0.16359735352021
