25
 energy: 98.990698420682 xtb: 6.6.1 (8d0f1dd)
C            2.74675786940101        1.21702242916360        0.11667079321328
N            2.10295650917978       -0.06450032816433        0.08016938310841
C            2.70666532548374       -1.25977140220900       -0.02488471595965
N            1.75904935547930       -2.24162472929841       -0.03859005247907
C            0.52801632358358       -1.64599624405779        0.05951065288617
C            0.74089124117343       -0.27285887468637        0.13421497751329
C           -0.39747162022928        0.62160703335997        0.18528901533880
O           -0.30098031365141        1.87292114657613        0.22511373918604
N           -1.57396468873637       -0.01782087662084        0.16787634086505
C           -2.66379597391512        4.14310076590129       -0.36133242148265
C           -1.79058200037520       -1.30742779382394        0.12180551229959
O           -2.63265928107353        2.87263603023400       -0.10526309763459
N           -0.69455975550958       -2.18549011451431        0.06542309809534
C           -0.92939176479907       -3.61107561389604       -0.01351614497898
H            3.42259689330289        1.28107384543834        0.97115103084883
H            3.31831805316534        1.38303060669454       -0.79852569268340
H            1.97559428943959        1.98199559549726        0.20665851913007
H            3.75690222474298       -1.42207578569389       -0.08905516857624
H           -1.68704264013025        2.48212539624026        0.08942843242486
H           -3.63112520285733        4.56217081383561       -0.58514201634130
H           -1.77850068716533        4.75815692138081       -0.37240738407281
H           -0.51654829149086       -4.12482068538957        0.85875901196717
H           -0.48886999610151       -4.02947714323799       -0.92226458759997
H           -2.00616441505102       -3.77718688860975       -0.03879910839062
H            1.94612285110350       -3.22668531538039       -0.10525620448329
