25
 energy: -1.531928835150 xtb: 6.6.1 (8d0f1dd)
C            3.17911282025517        1.20270392992739        0.09815434013190
N            2.27100592597293        0.09223824307041        0.04285031808383
C            2.57448077515364       -1.26542187817207        0.02513815442067
N            1.37785699193426       -1.96485567244539       -0.00582802247929
C            0.34430198389290       -1.09555096440273        0.00485918806275
C            0.87399468147568        0.18686950480759        0.03433747375023
C            0.05792408065343        1.32116419036376        0.02828269796282
O            0.43809664768607        2.49825332148919        0.07549794450561
N           -1.35401656397505        1.03200034374574       -0.04451825134372
C           -2.14471539330813        2.26384827434023       -0.09034638631849
C           -1.93344222278706       -0.19933549624832       -0.05234561783291
O           -3.13735740179910       -0.33305957768599       -0.10075271559595
N           -1.01357114612837       -1.32125688466689       -0.01551549241327
C           -1.44739070708098       -2.70231336937840       -0.04983984689208
H            3.71251922816212        1.25748369723662        1.05511113069609
H            3.91769412428017        1.15139113635991       -0.70716019872204
H            2.58386536724833        2.10857516181615       -0.01885430535122
H            3.55355374792932       -1.69640523446148        0.01914393691966
H           -1.39674699641407        3.05370270730903       -0.11083981365389
H           -2.80456138385134        2.31147192175137       -0.95762028243597
H           -2.76673874611290        2.38142013484988        0.80123394582287
H           -1.09084087458860       -3.24618228658696        0.83179482250478
H           -1.06773945980790       -3.21316490316633       -0.94215713452209
H           -2.53418279623535       -2.69571775509952       -0.06755417104219
H            1.31052914039982       -2.96990009082787       -0.03694732213203
