  25
        -42.19693864
 C          4.4103228177       -0.1543727672        0.0235772070
 N          3.8865896184       -1.2813131490       -0.2323225458
 C          2.9175140184       -2.0929375080        0.0016820906
 N          1.6115400596       -1.7356356142        0.0818201543
 C          1.1580705580       -0.4486389371        0.0676750522
 C         -0.1350642848       -0.0148367702        0.0344434855
 C         -0.4330356159        1.4322515442        0.0342910819
 O          0.3463165963        2.3564989788        0.0551993384
 N         -1.8105760231        1.5162930124        0.0042364436
 C         -2.5629578503        2.7422068812       -0.0058003514
 C         -2.3871572205        0.2588989821       -0.0146549210
 O         -3.5565442780       -0.0087544588       -0.0435420882
 N         -1.3407395914       -0.6682419406        0.0056252434
 C         -1.5975713857       -2.0818424226       -0.0180846178
 H          4.3011338369        0.3429957053        0.9835176722
 H          5.0664167420        0.2824921920       -0.7086072439
 H          1.9112415647        0.3299334501        0.0646973403
 H          3.1350527013       -3.1544682411       -0.0058641813
 H         -1.8561792286        3.5710134076        0.0108944400
 H         -3.1826412415        2.7947736748       -0.9030038280
 H         -3.2162439308        2.7884783067        0.8676420758
 H         -1.2145213850       -2.5653691629        0.8835428387
 H         -1.1722532436       -2.5422753389       -0.9132929149
 H         -2.6809873536       -2.2106628620       -0.0453940687
 H          0.9273963737       -2.4826140139        0.0680020129
