  25
        -42.10714315
 C          3.3425347995        0.9339989696       -0.8028343549
 N          2.4023413801       -0.1360144555       -0.6410424431
 C          2.2684692980       -0.7911347076        0.6062074384
 N          1.3556681580       -1.9357077287        0.4442707237
 C          0.3630944844       -1.1248960476        0.0109959188
 C          1.1424958241        0.1121376926        0.1114696554
 C          0.3982103676        1.3896580185        0.3441485118
 O          0.9023893949        2.4402406090        0.6163213378
 N         -0.9516387024        1.1958097811        0.1591180684
 C         -3.6512764120        1.2216506188       -0.1571756281
 C         -1.5717778764        0.1009378627       -0.0776793509
 O         -2.8555324924        0.0298962789       -0.2719787288
 N         -0.9464598528       -1.1815930762       -0.1198198530
 C         -1.6947961494       -2.4238614158       -0.1545444801
 H          3.5126860290        1.5117426590        0.1107025979
 H          4.2795188099        0.4887221630       -1.1351549571
 H          2.9755591166        1.5983973771       -1.5826118973
 H          2.9101033225       -0.7018442278        1.4662104030
 H         -3.0316580091        2.1165403687       -0.1671581476
 H         -4.3502752051        1.2197858581       -0.9913842252
 H         -4.1947405400        1.1570458786        0.7810512228
 H         -1.3715933285       -3.0691267365        0.6622744090
 H         -1.5269198302       -2.9303630709       -1.1054179287
 H         -2.7542998381       -2.2051671100       -0.0525100046
 H          1.5952001869       -2.8739465286        0.1593629981
