72
 energy: -99.406598756198 gnorm: 0.006987039460 xtb: 6.6.1 (8d0f1dd)
N           -1.89009499290345        2.79218707797018        2.23883446575240
C           -1.83495869311522        2.11689355677983        1.19014642909636
C           -2.98376124723188        1.91123215842733        0.24166605577753
C           -3.46284571399995        0.46898382967937        0.32413797411223
C           -4.41602838276303        0.00437344708324       -0.58468337200591
C           -4.89451653567916       -1.29393498396815       -0.53193027073885
O           -5.82347188287989       -1.81765797183019       -1.35757348644226
C           -6.45855946697574       -0.98642383687131       -2.30033197845521
C           -4.39452661284695       -2.18487939042159        0.45631102005989
O           -4.90755808917770       -3.43092098576532        0.42504540368386
C           -4.51837910048896       -4.35774451729679        1.41150562454424
C           -3.44879132858689       -1.71805186173540        1.35461409019982
C           -2.99297626180247       -0.40667161761841        1.29050510190685
C           -2.42798070029546        2.19659443094953       -1.17789835876873
C           -1.49078970013725        1.10478227625116       -1.72525179244227
C           -0.15611633088730        1.09869570252649       -1.08680884153009
N            0.50634036633350        0.01885565139008       -0.68895360678049
C            1.88675259272362        0.11881545432227       -0.28152179694122
C            2.84834132858927       -0.34851763468143       -1.38673697508301
C            4.26885611311196       -0.13917171033180       -0.94389876027852
C            4.91069936391907        1.06897966275128       -1.16147123467303
C            6.20645341091746        1.27480401139407       -0.71305602449315
C            6.88665689834581        0.27511283794396       -0.03232207690431
O            8.14002494740536        0.36299790949056        0.44943113830687
C            8.88031234914442        1.54312165701706        0.23720493604934
C            6.23648454960175       -0.96957394285923        0.19431799918317
O            6.96738192856311       -1.88931631988588        0.85493409621151
C            6.41658896540662       -3.16335366983080        1.08868616768635
C            4.94049281225964       -1.15062752731623       -0.26114380557713
C           -0.09226063879537       -1.29438630821416       -0.70195166498164
C           -4.19202178642279        2.84980283744264        0.53513894752182
C           -4.83731080038457        2.52516047021408        1.88023169446498
C           -3.82711255841122        4.33071860107502        0.47918585218154
H           -4.80161526639607        0.67373046757071       -1.33553641139071
H           -6.96431558225221       -0.14519885085337       -1.81687228416818
H           -7.19765533831465       -1.61600319169046       -2.79195647360764
H           -5.75214424156143       -0.61032529712013       -3.04746226719131
H           -4.76046737849802       -3.99949284772517        2.41637814404600
H           -5.08799632535379       -5.26137096438666        1.20378208703147
H           -3.44861968292962       -4.58256586313230        1.35099787174846
H           -3.06542536505426       -2.36544511331962        2.12656698850892
H           -2.28164216599629       -0.07118585850917        2.02941214124080
H           -3.26559636982650        2.29791103533841       -1.86681543628182
H           -1.89543770528802        3.14821351949408       -1.16401955169923
H           -1.97774350449111        0.13377834834515       -1.65418690372892
H           -1.33947816215614        1.32610579139970       -2.78999661997955
H           -0.91185707211550        1.62695154063233        0.82222085458694
H            0.39348606543769        2.02871391589231       -1.07667687632772
H            2.04854515473090       -0.49189774796986        0.61314288997628
H            2.11651507873023        1.15801324472545       -0.03610516153686
H            2.65747501747953        0.21394245799009       -2.29300330151847
H            2.67364715638097       -1.40365430758316       -1.59920753013516
H            4.40787208520651        1.86113285790372       -1.69528354068442
H            6.68240917860199        2.22301211181822       -0.90225223806682
H            8.41394256065267        2.40305283084098        0.72770757157509
H            9.00332977570617        1.75242574914798       -0.82948918973826
H            9.85560839065185        1.35911813044745        0.68381420790638
H            7.19002282167068       -3.72641127852660        1.60695916706296
H            5.52610219371045       -3.10503185498404        1.72298995831718
H            6.16663225490590       -3.66983037521614        0.15122428702713
H            4.43870633166758       -2.09208130037439       -0.10166452054183
H           -0.26489212951362       -1.64052603022362       -1.72308455042855
H           -1.04660657735078       -1.28278471078013       -0.16901086174596
H            0.57317354725469       -1.99612062337770       -0.20577807454158
H           -4.93339090123162        2.65667949299787       -0.24832777715866
H           -4.13593982494301        2.71742584901792        2.68552405421431
H           -5.14982059060301        1.48470688041814        1.92489214650158
H           -5.71268064945639        3.15262740019750        2.02517404667710
H           -3.06244766056799        4.56099503016380        1.21460741338666
H           -3.47804233010858        4.62579363605664       -0.50693074289022
H           -4.70802559237464        4.92349485319839        0.71071386546801
H           -1.04443640194049        2.88536130059375        2.79245451004375
