  25
        -42.12999179
 C          3.1555441707        1.0999422542        0.0199321447
 N          2.2924590418        0.0857758833       -0.0035738489
 C          2.5563458138       -1.2303669983        0.2095812963
 N          1.4028323012       -1.9344131001        0.1756384262
 C          0.3757985991       -1.0593542089       -0.0728522139
 C          0.9313444350        0.1886921344       -0.2054818632
 C          0.1083607932        1.4346804834       -0.4381458983
 O          0.5504076673        2.5120798039        0.1020285088
 N         -1.2916963532        1.0489124592       -0.0120485817
 C         -2.1637935730        2.1643993392        0.2497102692
 C         -1.8407661844       -0.1952739185       -0.0068842399
 O         -3.0207912903       -0.3964756394        0.1246419539
 N         -0.9520935578       -1.3006412466       -0.1151028889
 C         -1.5006867455       -2.6383148457       -0.0995665026
 H          4.1980821754        0.9064687646        0.1863038856
 H          0.0038649847        1.5492237657       -1.5570933099
 H          2.7595409188        2.0971623854       -0.0823859557
 H          3.5307975812       -1.6435353129        0.3740023235
 H         -1.5450574456        2.9848692117        0.6168030301
 H         -2.6789012156        2.4847771959       -0.6612026788
 H         -2.9148518067        1.8783351619        0.9844467757
 H         -1.2925064938       -3.1419066787        0.8469106451
 H         -1.0981977325       -3.2204223765       -0.9289981852
 H         -2.5812987817       -2.5485443168       -0.2114310058
 H          1.3315419062       -2.9333523989        0.3061459928
