  25
        -42.16322348
 C          3.4132984452        0.8558971370        0.1358353366
 N          2.4146147390       -0.1735879077        0.0654354728
 C          2.6074505284       -1.4863847827        0.0018587132
 N          1.4133212275       -2.1296446644       -0.0400560964
 C          0.4327458047       -1.1902999969        0.0015118931
 C          1.0568874251        0.0606513397        0.0671091334
 C          0.3272806394        1.2603331450        0.0864538434
 O         -1.1980550476        3.3599555333       -0.3990642693
 N         -0.9966958588        1.0618775127        0.0757513852
 C         -1.8469556596        2.2722888025        0.1178305416
 C         -1.6940674890       -0.1489802713        0.0390732453
 O         -2.8907847876       -0.2123505567        0.0456931317
 N         -0.9028024062       -1.3158584002       -0.0170500686
 C         -1.5603316484       -2.6046601894       -0.1117529404
 H          3.7805950907        0.9631956738        1.1583451445
 H          4.2522454962        0.6180392333       -0.5165674757
 H          2.9578597893        1.7955748167       -0.1716528936
 H          3.5602025344       -1.9769887139       -0.0144777302
 H         -2.1370979481        2.4292116584        1.1721159096
 H         -0.2408962338        3.2462547612       -0.2518617397
 H         -2.7558255012        2.0810268565       -0.4634632844
 H         -1.3324640041       -3.2146147996        0.7627070460
 H         -1.2523795756       -3.1208987352       -1.0212336108
 H         -2.6339426145       -2.4236709917       -0.1487779663
 H          1.3009114802       -3.1326925425       -0.0910519784
