  25
        -42.12646545
 C          3.9172175598        0.4764108663       -0.1503750779
 N          3.4820906042       -0.6950470390       -0.3660650312
 C          2.6950905370       -1.6502390957       -0.0157937040
 N          1.3467894685       -1.6701170517        0.1792283637
 C          0.3986101552       -0.6842742561        0.1170628383
 C          0.6642137236        0.6730767791        0.1890115456
 C         -0.3602358621        1.5999439899        0.1337293208
 O         -0.0512376373        2.8920504171        0.2265992104
 N         -1.6609951404        1.1950319156       -0.0196553004
 C         -2.7034051063        2.0329634448       -0.1421022529
 C         -1.9760221161       -0.2058132782       -0.0347621608
 O         -3.1218583273       -0.5609890988       -0.1046512305
 N         -0.9197171065       -1.0841752680        0.0209947213
 C         -1.2706435581       -2.4957278128       -0.0542718318
 H          3.7620003852        1.0197866076        0.7775624458
 H          4.5647152796        0.9126592898       -0.8969615804
 H          1.6600317155        1.0536075311        0.3029522757
 H          3.1409473042       -2.6393906162       -0.0103251106
 H         -0.8225518886        3.4578823638        0.3761230113
 H         -2.5681572302        3.0914564551       -0.2389529343
 H         -3.6797606053        1.5955977930       -0.2119334295
 H         -1.0219218546       -3.0130865639        0.8739774346
 H         -0.7878926225       -2.9692858698       -0.9101718872
 H         -2.3499520883       -2.5566764771       -0.1932285957
 H          0.9654787982       -2.6050308411        0.2665510448
