25
 energy: 0.000000000000 xtb: 6.6.1 (8d0f1dd)
C            3.23720132972391        1.16630909158653        0.08434468864950
N            2.29877796055224        0.07527476373246        0.03981602671198
C            2.58028186251803       -1.21425391179017        0.03006175752192
N            1.43813944744728       -1.93419254010258        0.00098261751768
C            0.39035684826767       -1.05887462812143       -0.00790371763344
C            0.93510047688824        0.21347817468824        0.01709077332874
C            0.09450143016486        1.40504290868848       -0.00410946993748
O            0.49712746915594        2.54126690785742       -0.00342325656480
N           -1.25076628431515        1.06271869620815       -0.03085477937476
C           -2.21907191394203        2.15522079838987       -0.05001256521996
C           -1.81739470187490       -0.20012724136556       -0.04692818139228
O           -2.99983858926755       -0.37846413507442       -0.07008877579474
N           -0.92618577614240       -1.30210203518959       -0.03682761236648
C           -1.46982251276835       -2.64643077634382       -0.06029819901142
H            3.71247229913541        1.21471443890471        1.06488839270555
H            4.00791460421487        1.03430799217987       -0.67357688121503
H            2.69909982127087        2.09770098766290       -0.09130154035862
H            3.56654087521359       -1.63682977417947        0.04233139674524
H           -1.67107945562430        3.09322822573871       -0.02552706696334
H           -2.82428927394145        2.09428605349656       -0.95318074103337
H           -2.87644002486466        2.07745706351925        0.81450059976605
H           -1.17061985538665       -3.19584861009707        0.83242224714061
H           -1.14560246782873       -3.17511580834413       -0.95688266944647
H           -2.55549768731684       -2.55659960601237       -0.07459039105944
H            1.38130842369251       -2.94313824728853       -0.01389874052104
25
 energy: -5.972162654285 xtb: 6.6.1 (8d0f1dd)
C            3.23976986384041        1.17251352212765        0.08630663571720
N            2.30453252433139        0.09376715558707        0.03391861934524
C            2.59411513650633       -1.25701953962689        0.03192060173003
N            1.40997517655661       -1.96791718094891        0.00074534951216
C            0.40154936413892       -1.06801604368455       -0.00874058890530
C            0.92009892820599        0.22091968572161        0.01375786891618
C            0.11662770461394        1.38690061460407       -0.00522351078435
O            0.49369780544310        2.56177590433530       -0.00408796626286
N           -1.26852148655761        1.05448875098297       -0.03133576639865
C           -2.22282463385372        2.15190600741423       -0.04967919481021
C           -1.81564379405698       -0.19240478010819       -0.04744534850381
O           -3.01440274119018       -0.38186360870835       -0.07043485891353
N           -0.93757638420944       -1.29523439614973       -0.03743252337510
C           -1.46464214974546       -2.63863134138574       -0.06030715264013
H            3.71946905311032        1.22338138451157        1.06777713327522
H            4.01119513469876        1.04383332366822       -0.67515987975989
H            2.70069575659516        2.10350485877558       -0.08883986327684
H            3.57350535299913       -1.66218162271421        0.04327165988144
H           -1.66810583627124        3.08787122462952       -0.02540107593152
H           -2.82893081403740        2.09635700919745       -0.95358053992523
H           -2.88047154443559        2.07947906101610        0.81597739173640
H           -1.15592892897736       -3.18829248191302        0.83212750296236
H           -1.13114612165546       -3.16804537650375       -0.95618181410758
H           -2.54948807237053       -2.55593722607156       -0.07462757680244
H            1.32418232179774       -2.99014597212374       -0.01295544341909
25
 energy: -4.523496081561 xtb: 6.6.1 (8d0f1dd)
C            3.23869682098958        1.17215783520359        0.08649848548463
N            2.30650789268752        0.08454130194846        0.02944919167747
C            2.58799787236080       -1.27625018120180        0.03045330282350
N            1.39741727568217       -1.99760798272487        0.00068767288800
C            0.40356215456718       -1.07549207922154       -0.01021870963097
C            0.92153898510392        0.21410352042710        0.00983299531685
C            0.11807287966040        1.38458155464924       -0.00632242551446
O            0.49209829197458        2.56147193675280       -0.00413887102655
N           -1.26948090110928        1.05667985515534       -0.03177459008667
C           -2.22503274639871        2.15333349826799       -0.04955882198962
C           -1.81693007292383       -0.18969943811564       -0.04808296908163
O           -3.01601011906277       -0.38028188291500       -0.07076535481091
N           -0.93751408908708       -1.29017251291518       -0.03797606930100
C           -1.45805320066450       -2.63507771837441       -0.06025530438190
H            3.72045474113722        1.22670830115489        1.06734021156439
H            4.01122999406672        1.05149742263949       -0.67546889937202
H            2.69955653734743        2.10550457023168       -0.08568456413952
H            3.57151130166226       -1.67108706378385        0.04682563483670
H           -1.67031054188405        3.08910449792183       -0.02529526693689
H           -2.83176324277409        2.09809241881047       -0.95329972181149
H           -2.88282633303090        2.08096421841479        0.81624599014540
H           -1.14278981564217       -3.18076576502098        0.83244346360962
H           -1.11832516412831       -3.16096540024563       -0.95597395254441
H           -2.54255863923076       -2.55838271186854       -0.07448190366241
H            1.27001034641406       -3.03786214060178       -0.01012338080370
25
 energy: -1.624317812409 xtb: 6.6.1 (8d0f1dd)
C            3.23776381340135        1.17357616380487        0.08793924829661
N            2.30712704080258        0.07926018263683        0.02874609854329
C            2.58139496361402       -1.29157550915793        0.02957719887209
N            1.38517574199088       -2.02526502137333       -0.00100889522327
C            0.40547911310800       -1.08161536139439       -0.01104217340721
C            0.92286734359611        0.21111585628691        0.00894230585246
C            0.11862504537011        1.38561526994688       -0.00618216592049
O            0.49122113910278        2.56307422929394       -0.00341463584443
N           -1.27039419282128        1.06036285905035       -0.03193027976327
C           -2.22727596889173        2.15620472361268       -0.05044767359215
C           -1.81759710014579       -0.18640766880752       -0.04810292974671
O           -3.01686412779816       -0.37800863255950       -0.07086269364656
N           -0.93731401543562       -1.28497119022567       -0.03791316337355
C           -1.45143618206044       -2.63211069118631       -0.05905884825397
H            3.72221391151067        1.23020985010831        1.06771414825171
H            4.01043585754537        1.05964305227674       -0.67542056402662
H            2.69822722713521        2.10903701148642       -0.08004490730790
H            3.57342240350767       -1.66475770761383        0.04571957354962
H           -1.67382734039704        3.09268884228161       -0.02629903654630
H           -2.83396391777752        2.10057902084270       -0.95431672488261
H           -2.88594202007267        2.08404315255917        0.81484835856658
H           -1.12958270440963       -3.17450224962402        0.83351737213987
H           -1.10655459029398       -3.15556624293688       -0.95441655206996
H           -2.53566967142767       -2.56212466976659       -0.07246383819869
H            1.22307725538156       -3.08951181827814       -0.01287408672459
25
 energy: 2.926133668717 xtb: 6.6.1 (8d0f1dd)
C            3.23731462797980        1.17665292493575        0.08702035137473
N            2.30892579994784        0.07538279667265        0.02894370557142
C            2.57645043693247       -1.30544656011360        0.03299011912907
N            1.37686207079491       -2.05283046151575        0.00056962127830
C            0.40937168912429       -1.08700448157412       -0.01053808186963
C            0.92532137056291        0.20905738111886        0.00923565226536
C            0.11967822925007        1.38792496971967       -0.00565386746492
O            0.49032830042624        2.56562445990412       -0.00199802464680
N           -1.27022997497814        1.06506693330491       -0.03176000260573
C           -2.23029562938888        2.15873141410439       -0.04972100337318
C           -1.81614485747423       -0.18234647221776       -0.04876785603481
O           -3.01560295701573       -0.37385552891490       -0.07305832217626
N           -0.93562528385696       -1.27950119004026       -0.03806469103516
C           -1.44569849444883       -2.62839850580283       -0.06012575279197
H            3.72494028681275        1.23777868099556        1.06529800839689
H            4.00941713587173        1.06806806256421       -0.67817782071010
H            2.69580623527021        2.11279884441640       -0.07747595770891
H            3.57598574598757       -1.65897648448394        0.04713777716414
H           -1.68171269587781        3.09800581676062       -0.02530198122889
H           -2.83764806611432        2.10131231154082       -0.95308610631498
H           -2.88930370948938        2.08399254317864        0.81518086539032
H           -1.12087644648448       -3.16999432752528        0.83206354370766
H           -1.09633879242068       -3.15026101966172       -0.95487730283966
H           -2.52939488316739       -2.56289305408878       -0.07454273437371
H            1.20920201246872       -3.15434283163275       -0.01348421918741
25
 energy: 21.808328587975 xtb: 6.6.1 (8d0f1dd)
C            3.24286757078999        1.19653677711490        0.08695013551692
N            2.30736639055724        0.09572820718877        0.03392790797950
C            2.54543226522726       -1.24304919946477        0.03332996960838
N            1.42257793430082       -1.95167914597108        0.00356818920263
C            0.41921214446014       -1.04865934749149       -0.00963286327373
C            0.93625352729392        0.24343079813604        0.01010100162167
C            0.10318824988682        1.41694142790287       -0.00504146811615
O            0.47710692059066        2.57620870648372        0.00017926067433
N           -1.25840256772652        1.08038512030573       -0.03166824457947
C           -2.23234108227987        2.16381725462092       -0.04984362473778
C           -1.80675681016642       -0.19367184224919       -0.04943851963278
O           -3.00491970513464       -0.36488965951014       -0.07517641799604
N           -0.92396885409047       -1.26548496776189       -0.03815999264224
C           -1.43714383918103       -2.62112874910589       -0.06022862442016
H            3.72829510151359        1.24526586801620        1.06353162321135
H            4.00922903591452        1.07813402129851       -0.67936036832271
H            2.70001935740142        2.13044321578416       -0.07275092602890
H            3.55181592553674       -1.62628509893352        0.04540914117681
H           -1.68966772549941        3.10593522669522       -0.02517439914775
H           -2.83956258159701        2.10263430577613       -0.95274097145194
H           -2.89151562102480        2.08492867132271        0.81430732175269
H           -1.10076783811081       -3.15946066991411        0.82705936325828
H           -1.07670725277031       -3.13988343472047       -0.94974550445854
H           -2.52090996787755       -2.56332848889637       -0.07467140739420
H            1.12537854170045       -3.63967429122077       -0.01791078681233
25
 energy: 20.143625312070 xtb: 6.6.1 (8d0f1dd)
C            3.24277280754475        1.20289093693896        0.08720393083118
N            2.30694172623044        0.10022583281541        0.03430589716518
C            2.54070507723750       -1.23924873798778        0.03667330962157
N            1.41933761216020       -1.96181142362535        0.00505902818657
C            0.42239973857052       -1.04651029128303       -0.00996362444782
C            0.93663915377220        0.24758699436209        0.00954220903519
C            0.10130346250089        1.42076428748433       -0.00512256573095
O            0.47196566536344        2.57969483387099        0.00168720599120
N           -1.25912169391375        1.08472926528351       -0.03214666775276
C           -2.23383446242730        2.16709698659481       -0.05006259722999
C           -1.80530864708427       -0.19034377614204       -0.04972926647949
O           -3.00275818160948       -0.36452786573053       -0.07468195608771
N           -0.92159620454413       -1.25962244703743       -0.03857898891385
C           -1.42961569798402       -2.61730638685626       -0.05961120463874
H            3.72899663994815        1.25254181113243        1.06354585156938
H            4.00841130294517        1.08752814950943       -0.68040613170810
H            2.69984739370241        2.13747341796778       -0.07188004652137
H            3.55118725378909       -1.61447362721601        0.04586154156155
H           -1.69126084972532        3.10937947055826       -0.02567090523387
H           -2.84123818802436        2.10468151401187       -0.95279185783092
H           -2.89293540001868        2.08726077591441        0.81414098598315
H           -1.08829093963097       -3.15293720773258        0.82744566891024
H           -1.06518237798224       -3.13443216699757       -0.94849373782814
H           -2.51351446900278       -2.56714346734334       -0.07360620738489
H            1.10329573567800       -3.73821502387550       -0.02241831220351
25
 energy: 18.898357810961 xtb: 6.6.1 (8d0f1dd)
C            3.24432552901902        1.21172604293175        0.08633937282414
N            2.30608860316302        0.11093091992252        0.03386723554480
C            2.53825981482899       -1.22740333477005        0.03901183611925
N            1.42128468931558       -1.95486007923173        0.00440256524454
C            0.42469733484537       -1.03867511226954       -0.01083190685281
C            0.93628231021787        0.25663784690901        0.00926215596910
C            0.09881157779006        1.42750350655092       -0.00347267710944
O            0.46483529991894        2.58740540783611        0.00536372698211
N           -1.26075389755660        1.08966616263272       -0.03159158432532
C           -2.23664076740516        2.17086700237916       -0.05033302656034
C           -1.80428994383309       -0.18618783883634       -0.04944311134089
O           -3.00087899789515       -0.36480925530984       -0.07398993798738
N           -0.91898255623770       -1.25307615313695       -0.03926227326655
C           -1.42143630090110       -2.61260780286666       -0.05987359450367
H            3.73175939254533        1.25981116833489        1.06204027428818
H            4.00913134795484        1.09618533054183       -0.68199192399970
H            2.70423840475915        2.14823127483377       -0.07207642275309
H            3.54992105189213       -1.60017866000900        0.04806524846991
H           -1.69496534735448        3.11387508879609       -0.02615980600482
H           -2.84359301902821        2.10726830137755       -0.95333276283685
H           -2.89690148941323        2.09081383783554        0.81307245423181
H           -1.07545702874780       -3.14538561689285        0.82722423299183
H           -1.05377357081217       -3.12717128306232       -0.94905335652085
H           -2.50564990796354       -2.56862968837396       -0.07306597240255
H            1.08503740610720       -3.84005591683972       -0.02131646804664
25
 energy: 18.406233764054 xtb: 6.6.1 (8d0f1dd)
C            3.24611994171125        1.21982456837737        0.08722992560500
N            2.30487114988653        0.12249360426345        0.03562089655921
C            2.53663495312495       -1.21476315434807        0.03835712001055
N            1.42253235469663       -1.94500226693530        0.00906189816882
C            0.42613963748846       -1.02843389147735       -0.00809423673363
C            0.93549007089814        0.26732455022045        0.01052322595227
C            0.09584122597393        1.43538499988838       -0.00423410699363
O            0.45744850949518        2.59616492474512        0.00353102326690
N           -1.26285443376146        1.09508969793541       -0.03280488290146
C           -2.23996677095767        2.17452963315020       -0.05102223027413
C           -1.80411450522883       -0.18154956787637       -0.05032340050928
O           -2.99984881815902       -0.36359416487533       -0.07552192908455
N           -0.91700713034506       -1.24562995008943       -0.03819200705255
C           -1.41199707732322       -2.60800835322824       -0.05851509778262
H            3.73657295057181        1.26399989725719        1.06148620252378
H            4.00800131273131        1.10338891081316       -0.68384066223500
H            2.70778751347799        2.15764613017133       -0.06856828745428
H            3.54923184754656       -1.58635301287739        0.04238290681879
H           -1.69917324085479        3.11814146426645       -0.02688376866279
H           -2.84743943535292        2.10951279556292       -0.95359074892669
H           -2.89960996126777        2.09265634865997        0.81275471495259
H           -1.06244983238505       -3.13709900571244        0.82950437784179
H           -1.03797070313097       -3.11968918214045       -0.94682359148497
H           -2.49671235576093       -2.57363359121546       -0.07357603680968
H            1.06358385609361       -3.94809894555707       -0.02673448262980
25
 energy: 18.378303330269 xtb: 6.6.1 (8d0f1dd)
C            3.24576975976904        1.23018687473921        0.08725162803252
N            2.30229547853592        0.13472039816213        0.03761575791646
C            2.53526132199441       -1.20070548610962        0.03918745493936
N            1.42627789517570       -1.93368708779757        0.00875037047453
C            0.42815223120203       -1.01868703384864       -0.00851054621582
C            0.93416617388141        0.27764695636154        0.01054186331036
C            0.09278607559029        1.44314949096820       -0.00467938394499
O            0.45045527999671        2.60502031895615        0.00352006142668
N           -1.26389730851514        1.09985093971015       -0.03310885145305
C           -2.24165119013610        2.17817823876834       -0.05096999848540
C           -1.80185477434832       -0.17851209945865       -0.05010280372686
O           -2.99739243572207       -0.36240622511006       -0.07476092637379
N           -0.91405499213004       -1.23962067664495       -0.03844303731298
C           -1.40314159883811       -2.60401382719830       -0.05817695833294
H            3.73832384850157        1.27227013821003        1.06047479901110
H            4.00624364144054        1.11324572999419       -0.68510103691137
H            2.71059231858374        2.16964711288828       -0.06830827960354
H            3.54824302993631       -1.57179035466848        0.04448509297245
H           -1.70087841924852        3.12157807841130       -0.02688252533330
H           -2.84911132896987        2.11316004144951       -0.95345651523530
H           -2.90096513582454        2.09631134215653        0.81300010995747
H           -1.04857081260019       -3.13017053826906        0.82975405619130
H           -1.02617825758715       -3.11232972098490       -0.94729994998163
H           -2.48839137645042       -2.57721092910638       -0.07195662582425
H            1.04191854354193       -4.07364778730462       -0.02895051591769
25
 energy: 18.600894673482 xtb: 6.6.1 (8d0f1dd)
C            3.24780543583817        1.23943056119877        0.08700433135623
N            2.30145612026427        0.14793730734023        0.03899131423212
C            2.53474607744975       -1.18558082887954        0.03854626564953
N            1.42958675213195       -1.92028355414782        0.00776166686031
C            0.43002427886401       -1.00709686860566       -0.00815862697087
C            0.93357111890204        0.28932492403558        0.01151223285931
C            0.09073387514221        1.45249945141245       -0.00484144734191
O            0.44800704048696        2.61464911206726        0.00302635962899
N           -1.26494325741527        1.10596252726488       -0.03343365811353
C           -2.24484077963937        2.18189273013833       -0.05096416642904
C           -1.80024225733601       -0.17435884737928       -0.05012512706962
O           -2.99593261946801       -0.35921577343787       -0.07455557068444
N           -0.91154059133509       -1.23223077200711       -0.03852375305752
C           -1.39506887476254       -2.59864579607509       -0.05810826699726
H            3.74272931470960        1.27942681678749        1.05939616028495
H            4.00670121261587        1.12131727247964       -0.68680340621777
H            2.71491299341123        2.17936761526815       -0.06821773466576
H            3.54729671767669       -1.55604751166978        0.04515614528277
H           -1.70635673234203        3.12636940872241       -0.02681428914715
H           -2.85231689377107        2.11616132694995       -0.95322074129726
H           -2.90354679015159        2.09902958449693        0.81321676762277
H           -1.03696382156681       -3.12114108177182        0.83047817983060
H           -1.01339778069849       -3.10410844926224       -0.94683086537669
H           -2.48021347418261       -2.57965407158258       -0.07251134406066
H            1.02371719102362       -4.19787283896985       -0.03012519894915
25
 energy: 18.898181743557 xtb: 6.6.1 (8d0f1dd)
C            3.24985092438032        1.24981311205234        0.08654567496282
N            2.30175605334084        0.16185599139887        0.03917091235468
C            2.53523486589027       -1.16982562924203        0.03544569827669
N            1.43403844790702       -1.90577632500370        0.00628832283767
C            0.43245660182618       -0.99521370676695       -0.00800716759399
C            0.93379355348800        0.30114696498573        0.01222149268446
C            0.08925282476078        1.46203462224796       -0.00466593058134
O            0.44683842250858        2.62446506688113        0.00312426448423
N           -1.26514063514407        1.11224608304431       -0.03357751068248
C           -2.24717386407054        2.18559328323273       -0.05114837937087
C           -1.79842399849602       -0.17041725494726       -0.04992863878280
O           -2.99431191268060       -0.35518459295868       -0.07409401816772
N           -0.90851628173902       -1.22416461639847       -0.03836528524212
C           -1.38949923922416       -2.59123819366155       -0.05783816123982
H            3.74482286105675        1.28937375231153        1.05907155621053
H            4.00840471737282        1.13054183676209       -0.68730997800974
H            2.71802943602064        2.18893393399289       -0.07162989320940
H            3.54584682473333       -1.54331786693092        0.04383205132152
H           -1.71081598866191        3.13100180022266       -0.02711564580743
H           -2.85450891150133        2.11865322879428       -0.95336512784139
H           -2.90544723255636        2.10171741968734        0.81323421368672
H           -1.03099570402450       -3.11014178342131        0.83150668857504
H           -1.00722904219016       -3.09374455413001       -0.94683755268585
H           -2.47379974817886       -2.57902702558213       -0.07238130062730
H            1.00703567650024       -4.32906292323859       -0.03171323284412
25
 energy: 19.150663139651 xtb: 6.6.1 (8d0f1dd)
C            3.25256176816568        1.25975789751009        0.08632783729926
N            2.30244375709314        0.17562221701595        0.03887712101444
C            2.53622587792887       -1.15424857885307        0.03395919261612
N            1.43850976180702       -1.89040091411196        0.00591915310635
C            0.43469628273635       -0.98307331386572       -0.00770246422233
C            0.93414575958454        0.31319958634464        0.01274721091482
C            0.08731169201966        1.47170208948490       -0.00451906162162
O            0.44453826496111        2.63470720165886        0.00297707436578
N           -1.26545509166352        1.11807825608148       -0.03378084912554
C           -2.25022669573994        2.18897331937628       -0.05132608485435
C           -1.79659695101145       -0.16730330640482       -0.04981040846238
O           -2.99275146433630       -0.35166878943597       -0.07388377727823
N           -0.90502867461737       -1.21719100806689       -0.03812040485305
C           -1.38351659827937       -2.58442423590640       -0.05763791026565
H            3.74448100546090        1.29586012187226        1.06014778176828
H            4.01052141747521        1.13927331834234       -0.68744509287580
H            2.72272116091370        2.19899287316130       -0.07393092775317
H            3.54145666309776       -1.53869720210208        0.04364952033662
H           -1.71594679375205        3.13539648562315       -0.02724660629329
H           -2.85794414088639        2.12033504606191       -0.95341652600431
H           -2.90866595118057        2.10312197452519        0.81304462702659
H           -1.02144341352524       -3.10065642236419        0.83074964888331
H           -0.99796273896702       -3.08460100930461       -0.94552912523797
H           -2.46821372506881       -2.57451213925047       -0.07222605400820
H            0.99090244639503       -4.46337204367614       -0.03353203044827
25
 energy: 19.354116939420 xtb: 6.6.1 (8d0f1dd)
C            3.25569076316675        1.26941880292486        0.08630687896508
N            2.30320607707093        0.18919262187270        0.03918482824716
C            2.53864353947596       -1.13823937520950        0.03412087769191
N            1.44470855388472       -1.87486056794324        0.00523103565396
C            0.43758293066024       -0.97217264427597       -0.00790853214675
C            0.93466354584378        0.32424548007957        0.01323356002427
C            0.08536797737495        1.47980081432076       -0.00402164441694
O            0.44100595458098        2.64382787646635        0.00284734267702
N           -1.26452692167502        1.12072964307282       -0.03366010606536
C           -2.25161405866954        2.18986630930548       -0.05149514822244
C           -1.79350573778856       -0.16608805244407       -0.04897550298362
O           -2.99012354576826       -0.34976936879721       -0.07283196764447
N           -0.89996933442118       -1.21339107908854       -0.03770114356070
C           -1.37766306913975       -2.57877301737131       -0.05738876162369
H            3.74702809639306        1.30305341093914        1.06058469093732
H            4.01227224918356        1.13893983209232       -0.68693714659155
H            2.73025915745457        2.21081766357827       -0.07503613312856
H            3.53533507660769       -1.53625204757628        0.04819647264975
H           -1.72054472316233        3.13861526366466       -0.02730453120953
H           -2.85955771645617        2.11955351965243       -0.95338454426041
H           -2.90992384603213        2.10123069766146        0.81254439029739
H           -1.01054743764979       -3.09241314246817        0.82965818103007
H           -0.98734007318652       -3.07625062260854       -0.94392319945673
H           -2.46397115078962       -2.56751615757300       -0.07210426181876
H            0.96894349924852       -4.59632327932699       -0.03670724443206
25
 energy: 19.509891028921 xtb: 6.6.1 (8d0f1dd)
C            3.25868623713468        1.28045570096857        0.08706604728139
N            2.30497532163450        0.20236114028314        0.03974275938302
C            2.54382365928225       -1.12290030320877        0.03416649705158
N            1.45282607346982       -1.86030561782893        0.00496239783434
C            0.44089054986775       -0.96318642784201       -0.00737340737155
C            0.93580818151725        0.33402202555338        0.01417310073899
C            0.08517748045616        1.48742457674020       -0.00386938812096
O            0.43898422587537        2.65238317692489        0.00184667070423
N           -1.26165295966757        1.12212255959011       -0.03334209360700
C           -2.25246426832365        2.18777152009736       -0.05108461331157
C           -1.78945531452882       -0.16531755072120       -0.04897907455064
O           -2.98672513039639       -0.34638534577229       -0.07310023173385
N           -0.89527640692344       -1.21435256060805       -0.03710589164635
C           -1.37339271060298       -2.58025732486436       -0.05751052226897
H            3.74825724855438        1.31380102622411        1.06244396204329
H            4.01781318884172        1.14571963098028       -0.68402699253655
H            2.73323341639809        2.22137531728779       -0.07586489091057
H            3.53663811584878       -1.52719159497585        0.04889062147514
H           -1.72571369317120        3.13937736329827       -0.02710535380890
H           -2.85974480552439        2.11537236972568       -0.95301262917029
H           -2.91009674101424        2.09681123315665        0.81301810874364
H           -1.01063681136158       -3.10165677695901        0.82773951556665
H           -0.98782272041411       -3.08401052366232       -0.94349079001416
H           -2.46103260669270       -2.56055117431732       -0.07192386516293
H            0.94645102580705       -4.73038843025380       -0.03892276085619
25
 energy: 19.652777165645 xtb: 6.6.1 (8d0f1dd)
C            3.26136176240935        1.28582001331735        0.08774675379544
N            2.30501018799666        0.21273819557293        0.03998363126345
C            2.54811989499997       -1.11122973576483        0.03270129078969
N            1.45678867761654       -1.84654116142779        0.00351415951403
C            0.44192688399495       -0.95522163934685       -0.00707884761995
C            0.93605910357685        0.34334468145960        0.01574229513367
C            0.08298422203644        1.49434927716280       -0.00351332611541
O            0.43489067786693        2.66006210107700        0.00042674220518
N           -1.26271703697851        1.12320474026336       -0.03199196685344
C           -2.25502294444298        2.18787071013523       -0.05096544962651
C           -1.78766227923399       -0.16466743927093       -0.04863875412949
O           -2.98447171910809       -0.34865769419541       -0.07309656898186
N           -0.89199003938303       -1.21556483439937       -0.03700099395338
C           -1.37177549064357       -2.58085641701414       -0.05771257796878
H            3.75018639173073        1.31767094929056        1.06379933151229
H            4.02153221622140        1.14695014101838       -0.68173135795578
H            2.73903529293214        2.22755630253393       -0.07698222598334
H            3.53623682037944       -1.52711243381374        0.04686027899403
H           -1.72636402757954        3.13835477824942       -0.02689383559217
H           -2.86193064901373        2.11479526632727       -0.95330333383775
H           -2.91308958926867        2.09728181311230        0.81300478159188
H           -1.01730224531819       -3.10942705969639        0.82734368380137
H           -0.99430804625332       -3.09137350205348       -0.94392450910535
H           -2.45975393791360       -2.55635665213709       -0.07197874833382
H            0.92447017834828       -4.85396161165610       -0.03927654034944
