25
 energy: 0.000000000000 xtb: 6.6.1 (8d0f1dd)
C            3.23720163006194        1.16630919979326        0.08434469647475
N            2.29877817382611        0.07527477071623        0.03981603040599
C            2.58028210190900       -1.21425402444508        0.03006176031096
N            1.43813958087363       -1.93419271955128        0.00098261760884
C            0.39035688448383       -1.05887472636071       -0.00790371836672
C            0.93510056364412        0.21347819449412        0.01709077491437
C            0.09450143893243        1.40504303904423       -0.00410947031874
O            0.49712751527797        2.54126714362870       -0.00342325688240
N           -1.25076640035757        1.06271879480407       -0.03085478223738
C           -2.21907211982101        2.15522099834493       -0.05001256985998
C           -1.81739487048744       -0.20012725993278       -0.04692818574614
O           -2.99983886758376       -0.37846417018721       -0.07008878229737
N           -0.92618586207120       -1.30210215599479       -0.03682761578324
C           -1.46982264913417       -2.64643102187190       -0.06029820460571
H            3.71247264356769        1.21471455160235        1.06488849150277
H            4.00791497605742        1.03430808813993       -0.67357694370751
H            2.69910007168542        2.09770118228144       -0.09130154882931
H            3.56654120610678       -1.63682992603973        0.04233140067262
H           -1.67107961066214        3.09322851271934       -0.02552706933167
H           -2.82428953597071        2.09428624779827       -0.95318082946668
H           -2.87644029173232        2.07745725625962        0.81450067533302
H           -1.17061996399332       -3.19584890659852        0.83242232437030
H           -1.14560257411436       -3.17511610292205       -0.95688275822323
H           -2.55549792440841       -2.55659984320617       -0.07459039797972
H            1.38130855184625       -2.94313852034425       -0.01389874181052
25
 energy: -0.862717858108 xtb: 6.6.1 (8d0f1dd)
C            3.23855986895456        1.18509685150067        0.08602632533215
N            2.30264119478683        0.08731910951787        0.03769643670247
C            2.58105868194210       -1.25467250015321        0.02991115877162
N            1.40957174460892       -2.00269724679361        0.00012895644044
C            0.40180241954379       -1.06785629706170       -0.00870524513157
C            0.92975964493599        0.22088034851708        0.01511431150177
C            0.10171523915426        1.40704081067642       -0.00445570765344
O            0.49384067226775        2.57542581112830       -0.00240059008316
N           -1.26058604818092        1.06614453862175       -0.03123506333302
C           -2.22924455337952        2.15868470373217       -0.05010438274380
C           -1.81656173162985       -0.18788881994243       -0.04790767957822
O           -3.01226100924531       -0.37269913048491       -0.07141251874995
N           -0.92742768563488       -1.28926696729870       -0.03733216327228
C           -1.44676654510325       -2.63268220298900       -0.05972982021962
H            3.72472603533415        1.24358480003185        1.06443154837373
H            4.01010414126509        1.06640417487362       -0.67667544849146
H            2.70398068276608        2.12110712048576       -0.08503501596104
H            3.56682481525467       -1.65429954367284        0.04381079361950
H           -1.68161985408550        3.09850527887024       -0.02576524449827
H           -2.83699355614338        2.10121458642308       -0.95308460226171
H           -2.88898895617245        2.08422350674244        0.81415621174158
H           -1.12344732432459       -3.17217661521187        0.83246156151488
H           -1.09891904094934       -3.15234528393531       -0.95453185059576
H           -2.53192265850981       -2.55869729766618       -0.07397766251002
H            1.30236849048083       -3.08132113373951       -0.01435041276752
25
 energy: 9.672185704059 xtb: 6.6.1 (8d0f1dd)
C            3.23891738489130        1.19446582376188        0.08697431680463
N            2.30523787566363        0.08924767379387        0.03478993129521
C            2.57349957478557       -1.29047331675019        0.03075504163511
N            1.37773311012302       -2.06516163628918       -0.00024589690979
C            0.41210679220383       -1.07445460617481       -0.00940856902093
C            0.92558784969780        0.22227905773269        0.01281064608292
C            0.10809240192102        1.40127230056689       -0.00465228434359
O            0.48112263187994        2.58362264226799       -0.00060339660136
N           -1.27181028549246        1.07533717739582       -0.03181833931192
C           -2.23918140099344        2.16836507430628       -0.05033341852745
C           -1.81265663638475       -0.17171961801527       -0.04895522201910
O           -3.01216678100921       -0.36751974270915       -0.07325790422390
N           -0.92765934471654       -1.26704373196515       -0.03779690962999
C           -1.41610771229200       -2.61499338411004       -0.05897212614498
H            3.73521451184298        1.26723659800837        1.06211493338822
H            4.01101668850571        1.09948011887242       -0.68137982083436
H            2.70229775697860        2.13371741450140       -0.07695958091790
H            3.56507456289255       -1.65927809580503        0.04636274657422
H           -1.69421767228906        3.11054990178520       -0.02612946865527
H           -2.84981549450112        2.11104808945202       -0.95236669987730
H           -2.90138506545299        2.09387238792194        0.81303278313731
H           -1.06697653955682       -3.14286182530539        0.83282662329691
H           -1.04299315592254       -3.12430015154285       -0.95186241131923
H           -2.50141617401415       -2.56988944526516       -0.07328100518573
H            1.21269978917533       -3.21377010426256       -0.01461007254442
25
 energy: 18.278299326544 xtb: 6.6.1 (8d0f1dd)
C            3.23852873936719        1.19800578633245        0.08717977702973
N            2.30711672134247        0.08955841999768        0.03336321402903
C            2.56850277707411       -1.30289423720314        0.03211843779722
N            1.36349460405755       -2.09025642721746       -0.00022678477929
C            0.41591321368007       -1.07894050959969       -0.00953939665301
C            0.92467310676073        0.22011727131690        0.01187559405652
C            0.11097786365436        1.39920553960691       -0.00445988633244
O            0.47418123239078        2.58235095754826        0.00053559588845
N           -1.27718083575978        1.08352887696142       -0.03227894102280
C           -2.24306242129384        2.17633319097462       -0.05065033916103
C           -1.81220795486495       -0.16441479265416       -0.04963184476190
O           -3.01133860231527       -0.36738364225382       -0.07460880189270
N           -0.92805266453931       -1.25453832762030       -0.03799342465541
C           -1.40111787324836       -2.60698990148787       -0.05840610032462
H            3.73901119593974        1.27418460760226        1.06020998005965
H            4.00895474827106        1.11454449560347       -0.68459930255107
H            2.69812522189768        2.13740278670786       -0.07210228287540
H            3.56687134130167       -1.65358023902651        0.04799543098482
H           -1.70016622198269        3.11945250394455       -0.02651495351765
H           -2.85453415906708        2.11770553511023       -0.95228829238605
H           -2.90580080327853        2.10054436437096        0.81247465867625
H           -1.04005013368919       -3.12643980576938        0.83398255400617
H           -1.01619753269024       -3.10879557416608       -0.95092115994885
H           -2.48621369071135       -2.58089978376296       -0.07280932617216
H            1.17178679563935       -3.28877249314420       -0.01567050934613
25
 energy: 23.933879912524 xtb: 6.6.1 (8d0f1dd)
C            3.23923621427017        1.20114634216624        0.08733952766563
N            2.30899679748615        0.09230364832813        0.03271810425060
C            2.56782621650772       -1.30225460051871        0.03354376386615
N            1.36087411015639       -2.09489519021657       -0.00003392503993
C            0.41762725876857       -1.08147193823039       -0.00967441278511
C            0.92527826451042        0.21865463417058        0.01135772960208
C            0.11218254184835        1.39965831518685       -0.00448402994927
O            0.47112579422655        2.58097345004512        0.00104420208157
N           -1.27851641683314        1.08750971708092       -0.03259345701458
C           -2.24404281857365        2.17911426913183       -0.05078002861510
C           -1.81261798798480       -0.16292650930396       -0.04991077874824
O           -3.01081917041035       -0.36866174499601       -0.07501147006431
N           -0.92805806137832       -1.24947429363169       -0.03814963815434
C           -1.39847475114040       -2.60413717922937       -0.05821004788859
H            3.74068718936714        1.27621753711237        1.05953533609234
H            4.00821439744882        1.11972468466566       -0.68550391943206
H            2.69773331367965        2.14034995408397       -0.07050378718517
H            3.56995241359254       -1.64387805573677        0.04827007596436
H           -1.70233695414611        3.12256144618049       -0.02670292069836
H           -2.85558605978340        2.11967215225948       -0.95237179618201
H           -2.90660819304748        2.10255275001674        0.81249912443693
H           -1.03560229361257       -3.12038226566781        0.83449256604204
H           -1.01180409622796       -3.10309015633528       -0.95079460860934
H           -2.48277940768402       -2.58379689358093       -0.07260792953877
H            1.15972636689589       -3.33644147080884       -0.01643378394922
25
 energy: 32.369532990566 xtb: 6.6.1 (8d0f1dd)
C            3.24103409638231        1.20564333863233        0.08755233302223
N            2.31114579049993        0.09823302477242        0.03210958857760
C            2.56864379303002       -1.29436650214187        0.03631564914862
N            1.36249976847234       -2.08815905075127        0.00046114934205
C            0.41865903901823       -1.08205312017138       -0.00993382857851
C            0.92627822974191        0.21897606440837        0.01084660706678
C            0.11261938461022        1.40277912931820       -0.00462456194419
O            0.46858733241668        2.58127446474760        0.00150941918725
N           -1.27854754388606        1.09111494081466       -0.03293739190249
C           -2.24471388138780        2.18032883166052       -0.05087188656206
C           -1.81356725215824       -0.16287315039714       -0.04997679797538
O           -3.01048994163364       -0.36919446107249       -0.07491561660184
N           -0.92783602501626       -1.24490883462994       -0.03835996413413
C           -1.39902736261342       -2.60223763459909       -0.05815589372031
H            3.74206472959181        1.27806492449955        1.05955306317215
H            4.00886381282375        1.12232869664543       -0.68544468879682
H            2.70020384850331        2.14483430914257       -0.07025277850228
H            3.57317504681352       -1.63022531853337        0.04697988915426
H           -1.70479254845360        3.12448675987699       -0.02683029957959
H           -2.85624284209202        2.12015468419145       -0.95246095953947
H           -2.90700430367978        2.10303349885493        0.81263191557294
H           -1.03631505256043       -3.11667215999511        0.83457916758407
H           -1.01262542006161       -3.09956653444843       -0.95075272969915
H           -2.48267231245081       -2.58366351410629       -0.07249974260400
H            1.15227428202580       -3.40830378454662       -0.01748774554044
25
 energy: 39.116365254565 xtb: 6.6.1 (8d0f1dd)
C            3.24349111081744        1.21366948961664        0.08775504727339
N            2.31365554192494        0.10807290999932        0.03135424642271
C            2.56802519028186       -1.28393589130569        0.04075868702903
N            1.36337548666532       -2.08096550189097        0.00159679859159
C            0.42208765136554       -1.08102872539009       -0.01010244021887
C            0.92712652548190        0.22287218553573        0.01032101236143
C            0.11356822876312        1.40817007427421       -0.00466142690816
O            0.46340028916288        2.58450371284553        0.00207284776436
N           -1.27921006019468        1.09710812040605       -0.03333589029524
C           -2.24653291268767        2.18279380374275       -0.05101501839636
C           -1.81305233012472       -0.16134784972086       -0.05003089508214
O           -3.00864429351961       -0.36920920030910       -0.07485011405100
N           -0.92635546700385       -1.23635996491630       -0.03860230564847
C           -1.39643981990967       -2.59760474610031       -0.05804120732888
H            3.74417807742455        1.28320287806093        1.05953337431108
H            4.01006622023757        1.12856354521638       -0.68562203815465
H            2.70371293512312        2.15335227126219       -0.06984305081208
H            3.57624066610168       -1.61047877735170        0.04483713348394
H           -1.70937576564654        3.12825459649959       -0.02699507590549
H           -2.85808339159973        2.12113666843642       -0.95260977301171
H           -2.90858695830777        2.10398314488360        0.81270386513118
H           -1.03188184345954       -3.10963708978733        0.83422332265957
H           -1.00828970501783       -3.09282589217254       -0.95004073124972
H           -2.47948588563088       -2.58347050040437       -0.07237504647428
H            1.12922517768875       -3.53979065925804       -0.01999742534395
25
 energy: 32.756762694226 xtb: 6.6.1 (8d0f1dd)
C            3.24938148157488        1.23062746440387        0.08815095656974
N            2.31867412815472        0.13153884496342        0.03060662395785
C            2.55919912828019       -1.25087819352505        0.04659118401929
N            1.36870985200027       -2.04791196251723        0.00442805866785
C            0.43241385521409       -1.07122081374411       -0.01014967513158
C            0.93092584867175        0.23795380888447        0.00960815008571
C            0.11616893917168        1.42428157289934       -0.00437514843759
O            0.44975616152116        2.59070184930082        0.00269930927152
N           -1.27845711666596        1.11265661430237       -0.03393195788154
C           -2.24923962378768        2.18809327553586       -0.05126367845149
C           -1.80946982920215       -0.16061928753080       -0.05001650951499
O           -3.00134516954418       -0.37057828490518       -0.07490433771172
N           -0.92037480832756       -1.21561523756156       -0.03878425045826
C           -1.38952671181254       -2.58826783022539       -0.05770536058269
H            3.74735623869667        1.29068674667544        1.05919150916494
H            4.01101851183692        1.13906716484599       -0.68634709506413
H            2.70909794984892        2.16937877101631       -0.06888348845845
H            3.57520624010395       -1.56656870742939        0.04261506744732
H           -1.71727472340626        3.13527513422046       -0.02725183813737
H           -2.86049034818053        2.12223523443112       -0.95291965427894
H           -2.91068655347732        2.10509837828627        0.81282735583555
H           -1.02072082155217       -3.09660558539460        0.83140749927637
H           -0.99729557224650       -3.08024636585299       -0.94646656762390
H           -2.47109148064413       -2.58602639498845       -0.07212664746339
H            1.07027909170795       -3.85402759391898       -0.02596560895280
25
 energy: 27.969672256878 xtb: 6.6.1 (8d0f1dd)
C            3.25157516232067        1.24382167112983        0.08858007999290
N            2.31600814165957        0.14850069978878        0.03218553188905
C            2.54202300507787       -1.21668471239933        0.04535728135016
N            1.38338384433632       -2.01061212578511        0.00609588117878
C            0.44268199107453       -1.05488933977999       -0.00954260104072
C            0.93407827738352        0.25797954438338        0.00940326961621
C            0.11412401697621        1.44538775463447       -0.00466710718125
O            0.43849931887628        2.60303782996143        0.00346837292696
N           -1.27381780602207        1.12649020556644       -0.03439407706802
C           -2.25101770142623        2.19254233833703       -0.05148069054926
C           -1.80285890536459       -0.16164348167531       -0.04998974562065
O           -2.99265122797248       -0.36782115059672       -0.07472682894998
N           -0.91072195214999       -1.20067459600277       -0.03835913412398
C           -1.38193970456574       -2.58067253437223       -0.05733789217961
H            3.74852000409813        1.29695116787519        1.05862770989817
H            4.01077460661392        1.14623970233749       -0.68603252100451
H            2.71571832194498        2.18486880039028       -0.06826217880843
H            3.56396566679583       -1.53014004103021        0.04210534826958
H           -1.72585262083866        3.14298637181266       -0.02755430533747
H           -2.86216027107315        2.12211414552494       -0.95290771214526
H           -2.91212057358848        2.10492461476385        0.81252877650187
H           -1.00858088988727       -3.08763133631857        0.82796061953486
H           -0.98548740956373       -3.07135726183545       -0.94230872688563
H           -2.46314549678971       -2.58521233724967       -0.07183937895748
H            1.02121687002045       -4.15947732728837       -0.02987607515900
25
 energy: 20.428560143093 xtb: 6.6.1 (8d0f1dd)
C            3.25168042136610        1.25061429492461        0.08772248356805
N            2.30560378770392        0.15962090400780        0.03806204208393
C            2.52676689005886       -1.16666382583429        0.03465312510402
N            1.42854993738567       -1.91496956414692        0.00649781931396
C            0.44675919922853       -1.00504272730144       -0.00823423523531
C            0.93614927155973        0.29999364425601        0.01141621325056
C            0.10039075468496        1.47231702071115       -0.00491505674180
O            0.43836578858463        2.63118823970738        0.00330914771690
N           -1.26453779926211        1.12625640639759       -0.03378715199785
C           -2.25071918753388        2.18941391147564       -0.05123747174942
C           -1.79636592523579       -0.16986546574285       -0.04969876736377
O           -2.98936948819251       -0.35731943784590       -0.07399951793633
N           -0.89909844767712       -1.20455684753188       -0.03737131980589
C           -1.37653820091439       -2.58346364661654       -0.05744698460739
H            3.74550433176068        1.29818171791933        1.05944022470415
H            4.01231361101016        1.14066596155695       -0.68503247833134
H            2.72045041194958        2.19241554524810       -0.07139615572755
H            3.53878388664917       -1.53116747060652        0.04676896091144
H           -1.72682118816710        3.14153796700436       -0.02724655651103
H           -2.86126211012536        2.11854852189980       -0.95258403007010
H           -2.91152308187054        2.10102624426629        0.81232530970009
H           -1.00758267095382       -3.09766474816000        0.82668831508167
H           -0.98473277489309       -3.08057485517285       -0.94178424914758
H           -2.46065233394576       -2.57604059775990       -0.07187772708801
H            0.99009958476564       -4.44542259048389       -0.03323804297410
25
 energy: 19.849893770316 xtb: 6.6.1 (8d0f1dd)
C            3.25822641449757        1.27345712302458        0.08666919020240
N            2.30699887368159        0.18847190447813        0.04002073736329
C            2.53478650439152       -1.13002002475518        0.03429742322120
N            1.45735755973249       -1.86251631566390        0.00462020450708
C            0.44511962888512       -0.97056973922168       -0.00755952798922
C            0.93659949135004        0.33089732076424        0.01356861082996
C            0.08814025170203        1.48740794547803       -0.00339352864009
O            0.43524950814185        2.65198176881528        0.00217681948389
N           -1.26142141163460        1.12399400567585       -0.03241130637080
C           -2.25224665352073        2.18714023735473       -0.05092620816601
C           -1.79136124887957       -0.17211705105987       -0.04862685002714
O           -2.98764778498424       -0.34835797239213       -0.07325933171533
N           -0.89610362395493       -1.21055728619483       -0.03691487383927
C           -1.37562255539866       -2.58362452458764       -0.05792546280862
H            3.74803822508596        1.31151743298689        1.06178639038547
H            4.01940799577040        1.14482181584781       -0.68344946021253
H            2.73167436336099        2.21464379542593       -0.07692045781411
H            3.53631406625746       -1.52659362831421        0.05005664466568
H           -1.72664413715663        3.13926944576122       -0.02676674788870
H           -2.86091777758031        2.11517091982215       -0.95291914579593
H           -2.91169726225791        2.09752737416536        0.81288971584434
H           -1.01629070336783       -3.10608986218523        0.82715010185651
H           -0.99336948083309       -3.08789898773447       -0.94409645438744
H           -2.46149039534171       -2.56187151833283       -0.07213758705131
H            0.94911481998939       -4.71705557698625       -0.03889499950604
25
 energy: 19.706666452849 xtb: 6.6.1 (8d0f1dd)
C            3.26204823365573        1.28749272758730        0.08779396736204
N            2.30875104663835        0.20967429413416        0.04007708554457
C            2.54567314663249       -1.11424509604728        0.03327449530336
N            1.45925177315745       -1.85136218437770        0.00457575710867
C            0.44315933572154       -0.95826866995064       -0.00716880385798
C            0.93641621101922        0.34174365952139        0.01474678251028
C            0.08377014675093        1.49288810303914       -0.00353852576474
O            0.43467728370086        2.65926021390823        0.00066694048830
N           -1.26182958392435        1.12440003904803       -0.03220162170570
C           -2.25418865833166        2.18766485325420       -0.05093920948902
C           -1.78826555492833       -0.16891192683716       -0.04865746250928
O           -2.98570218036942       -0.34576323655761       -0.07300130697444
N           -0.89412904365661       -1.21297884550276       -0.03686066484962
C           -1.37291212402243       -2.58201276793865       -0.05774835070336
H            3.75051985863348        1.31886022181613        1.06411911737420
H            4.02215613403819        1.14854139484354       -0.68185709277644
H            2.73758990484190        2.22780252188090       -0.07711849768464
H            3.53986538527352       -1.52076853972840        0.04633762721524
H           -1.72665913578874        3.13883086587400       -0.02686988368081
H           -2.86158801240724        2.11473193722623       -0.95323734846184
H           -2.91269127669710        2.09721188266418        0.81302388498429
H           -1.01766731062259       -3.10893457512983        0.82743196732372
H           -0.99450051405423       -3.09074851499268       -0.94407026706267
H           -2.46039738337174       -2.55747597687284       -0.07213047646803
H            0.91886698604695       -4.84860377868988       -0.03961421707884
25
 energy: 19.668857022024 xtb: 6.6.1 (8d0f1dd)
C            3.26181154739709        1.28668888966397        0.08729808584196
N            2.30673054487086        0.21221825485151        0.04003584083104
C            2.54717240380585       -1.11169583175379        0.03334096817403
N            1.45850708202553       -1.84729782505443        0.00400475416169
C            0.44268808602725       -0.95519579484936       -0.00700915335400
C            0.93607058662238        0.34340492211500        0.01550363335186
C            0.08263448357051        1.49430708171806       -0.00323401781330
O            0.43517255721507        2.66008641330444        0.00076038688117
N           -1.26228911586529        1.12430968266609       -0.03185788836730
C           -2.25504532544208        2.18784090038962       -0.05083764848889
C           -1.78745489433890       -0.16722263190830       -0.04848495730629
O           -2.98471269495176       -0.34698056252021       -0.07312277030480
N           -0.89226817191547       -1.21431224302816       -0.03686188960798
C           -1.37116250889695       -2.58134933561831       -0.05796123536243
H            3.75038581203059        1.31796063952890        1.06337886570881
H            4.02176215022140        1.14680839314171       -0.68220841177054
H            2.73838947503293        2.22728631638329       -0.07774624113522
H            3.53749718433298       -1.52415315295203        0.04823963353726
H           -1.72691496861644        3.13861735964628       -0.02672794684670
H           -2.86205529828166        2.11466417328052       -0.95318195793888
H           -2.91331026507195        2.09710892198581        0.81305146880098
H           -1.01611267843761       -3.10922409434619        0.82699442641627
H           -0.99300766375173       -3.09079764399449       -0.94423297962188
H           -2.45917327636247       -2.55702294483065       -0.07227168295822
H            0.91689961671610       -4.85702128564726       -0.03983538668136
25
 energy: 19.658343187681 xtb: 6.6.1 (8d0f1dd)
C            3.26142377625317        1.28634994483980        0.08768329568238
N            2.30533659128859        0.21332209452898        0.04002523911906
C            2.54862855640994       -1.11070533459635        0.03264921169557
N            1.45786611577283       -1.84638032445048        0.00377663663217
C            0.44249621355101       -0.95494138052767       -0.00697483892576
C            0.93604386897937        0.34328283272176        0.01579278286967
C            0.08245216171885        1.49434801703195       -0.00352135025496
O            0.43528448526186        2.65986883017244        0.00045452518650
N           -1.26254046786486        1.12349451794864       -0.03196284538428
C           -2.25501624194175        2.18775688562577       -0.05093882837690
C           -1.78711210003741       -0.16594867122399       -0.04863781702689
O           -2.98413086462317       -0.34841823212478       -0.07314798096429
N           -0.89139736217365       -1.21578776358274       -0.03691540110126
C           -1.37163661471461       -2.58099951366396       -0.05775723625955
H            3.75035348382515        1.31814913955245        1.06359010160544
H            4.02162998720659        1.14734546776111       -0.68167300970245
H            2.73914001144914        2.22787312599578       -0.07705346499765
H            3.53679620027201       -1.52618359375644        0.04704947326379
H           -1.72631725532540        3.13821048566360       -0.02686948862406
H           -2.86190405275628        2.11470624899828       -0.95326165517213
H           -2.91306715751708        2.09717539881479        0.81300201681661
H           -1.01748422583936       -3.10959714308172        0.82724269387249
H           -0.99441693451760       -3.09146601187976       -0.94394013465587
H           -2.45971513276786       -2.55608703626179       -0.07206123250576
H            0.91950162602671       -4.85633938233365       -0.03951679664460
25
 energy: 19.655074356300 xtb: 6.6.1 (8d0f1dd)
C            3.26147311084426        1.28565031778361        0.08720247523699
N            2.30481857451092        0.21307660602457        0.04003521705232
C            2.54846096291302       -1.11091497363477        0.03338828838729
N            1.45706541130891       -1.84635171826337        0.00373301508159
C            0.44206721895130       -0.95507390139722       -0.00691294142181
C            0.93599725087271        0.34333804824255        0.01602625776302
C            0.08266502547803        1.49450510377791       -0.00319558602238
O            0.43500634953186        2.66009987616458        0.00075133393916
N           -1.26279225044180        1.12336507978307       -0.03173569421396
C           -2.25523906459466        2.18793749688241       -0.05080486719000
C           -1.78751147045116       -0.16477850076968       -0.04848428308289
O           -2.98437099113969       -0.34852104529686       -0.07315154719737
N           -0.89171594362006       -1.21578998179565       -0.03698975407604
C           -1.37152640396826       -2.58094590190490       -0.05808504118707
H            3.75035501972340        1.31776844615019        1.06321797981213
H            4.02163562854747        1.14610933648294       -0.68220082822969
H            2.73956521956345        2.22753777622554       -0.07804109109648
H            3.53620851911095       -1.52722330145072        0.04813852812175
H           -1.72670698189066        3.13850479703145       -0.02666546877657
H           -2.86207525686955        2.11486473983941       -0.95317025553045
H           -2.91337988800659        2.09730580213723        0.81307828244278
H           -1.01699554284189       -3.10977760729806        0.82681524845456
H           -0.99386764866347       -3.09128267476247       -0.94437288820508
H           -2.45962722880954       -2.55680761961636       -0.07240206908805
H            0.92270504787723       -4.85356759816336       -0.03914041482648
25
 energy: 19.652802226598 xtb: 6.6.1 (8d0f1dd)
C            3.26136206498892        1.28582013261195        0.08774676193633
N            2.30501040184874        0.21273821531016        0.03998363497301
C            2.54812013140705       -1.11122983886146        0.03270129382362
N            1.45678881277312       -1.84654133274446        0.00351415984006
C            0.44192692499563       -0.95522172796951       -0.00707884827670
C            0.93605919042166        0.34334471331411        0.01574229659419
C            0.08298422973547        1.49434941580414       -0.00351332644137
O            0.43489071821481        2.66006234786975        0.00042674224477
N           -1.26271715412969        1.12320484447100       -0.03199196982156
C           -2.25502315365739        2.18787091311945       -0.05096545435493
C           -1.78766244508805       -0.16466745454829       -0.04863875864205
O           -2.98447199599861       -0.34865772654285       -0.07309657576355
N           -0.89199012213925       -1.21556494717591       -0.03700099738622
C           -1.37177561791287       -2.58085665645842       -0.05771258332318
H            3.75018673966201        1.31767107154020        1.06379943020847
H            4.02153258932735        1.14695024742905       -0.68173142120481
H            2.73903554705179        2.22755650920006       -0.07698223312552
H            3.53623714846111       -1.52711257549475        0.04686028334159
H           -1.72636418774652        3.13835506941676       -0.02689383808730
H           -2.86193091453525        2.11479546253176       -0.95330342228243
H           -2.91308985953657        2.09728200769195        0.81300485702008
H           -1.01730233970050       -3.10942734817990        0.82734376055989
H           -0.99430813850230       -3.09137378886203       -0.94392459667989
H           -2.45975416612235       -2.55635688930835       -0.07197875501180
H            0.92447026411791       -4.85396206199240       -0.03927654399340
