25
 energy: 0.000000000000 xtb: 6.6.1 (8d0f1dd)
C            3.23720132972391        1.16630909158653        0.08434468864950
N            2.29877796055224        0.07527476373246        0.03981602671198
C            2.58028186251803       -1.21425391179017        0.03006175752192
N            1.43813944744728       -1.93419254010258        0.00098261751768
C            0.39035684826767       -1.05887462812143       -0.00790371763344
C            0.93510047688824        0.21347817468824        0.01709077332874
C            0.09450143016486        1.40504290868848       -0.00410946993748
O            0.49712746915594        2.54126690785742       -0.00342325656480
N           -1.25076628431515        1.06271869620815       -0.03085477937476
C           -2.21907191394203        2.15522079838987       -0.05001256521996
C           -1.81739470187490       -0.20012724136556       -0.04692818139228
O           -2.99983858926755       -0.37846413507442       -0.07008877579474
N           -0.92618577614240       -1.30210203518959       -0.03682761236648
C           -1.46982251276835       -2.64643077634382       -0.06029819901142
H            3.71247229913541        1.21471443890471        1.06488839270555
H            4.00791460421487        1.03430799217987       -0.67357688121503
H            2.69909982127087        2.09770098766290       -0.09130154035862
H            3.56654087521359       -1.63682977417947        0.04233139674524
H           -1.67107945562430        3.09322822573871       -0.02552706696334
H           -2.82428927394145        2.09428605349656       -0.95318074103337
H           -2.87644002486466        2.07745706351925        0.81450059976605
H           -1.17061985538665       -3.19584861009707        0.83242224714061
H           -1.14560246782873       -3.17511580834413       -0.95688266944647
H           -2.55549768731684       -2.55659960601237       -0.07459039105944
H            1.38130842369251       -2.94313824728853       -0.01389874052104
25
 energy: -0.862752042562 xtb: 6.6.1 (8d0f1dd)
C            3.23855956849051        1.18509674155087        0.08602631735088
N            2.30264098115456        0.08731910141666        0.03769643320511
C            2.58105844247908       -1.25467238374839        0.02991115599655
N            1.40957161383301       -2.00269706098926        0.00012895642848
C            0.40180238226574       -1.06785619798914       -0.00870524432392
C            0.92975955867563        0.22088032802445        0.01511431009951
C            0.10171522971742        1.40704068013532       -0.00445570724005
O            0.49384062645067        2.57542557218788       -0.00240058986044
N           -1.26058593122746        1.06614443970800       -0.03123506043512
C           -2.22924434655678        2.15868450345576       -0.05010437809526
C           -1.81656156309460       -0.18788880251066       -0.04790767513349
O           -3.01226072977661       -0.37269909590698       -0.07141251212451
N           -0.92742759959087       -1.28926684768431       -0.03733215980871
C           -1.44676641087651       -2.63268195873650       -0.05972981467806
H            3.72472568976504        1.24358468465571        1.06443144961891
H            4.01010376921944        1.06640407593578       -0.67667538571150
H            2.70398043189872        2.12110692369569       -0.08503500807174
H            3.56682448433517       -1.65429939019180        0.04381078955486
H           -1.68161969806976        3.09850499140005       -0.02576524210785
H           -2.83699329293547        2.10121439147858       -0.95308451383733
H           -2.88898868814056        2.08422331337432        0.81415613620656
H           -1.12344722009446       -3.17217632090667        0.83246148428155
H           -1.09891893899487       -3.15234499147000       -0.95453176203711
H           -2.53192242360548       -2.55869706027778       -0.07397765564659
H            1.30236836965092       -3.08132084786361       -0.01435041143613
25
 energy: 9.672134545862 xtb: 6.6.1 (8d0f1dd)
C            3.23891708439408        1.19446571294286        0.08697430873541
N            2.30523766179045        0.08924766551373        0.03478992806750
C            2.57349933602386       -1.29047319702388        0.03075503878175
N            1.37773298230100       -2.06516144468957       -0.00024589688698
C            0.41210675396978       -1.07445450649008       -0.00940856814803
C            0.92558776382449        0.22227903711029        0.01281064489439
C            0.10809239189253        1.40127217056097       -0.00465228391196
O            0.48112258724280        2.58362240256709       -0.00060339654538
N           -1.27181016749765        1.07533707762920       -0.03181833635991
C           -2.23918119324879        2.16836487313176       -0.05033341385766
C           -1.81265646821181       -0.17171960208363       -0.04895521747718
O           -3.01216650154925       -0.36751970861175       -0.07325789742725
N           -0.92765925865104       -1.26704361441256       -0.03779690612330
C           -1.41610758090970       -2.61499314149866       -0.05897212067372
H            3.73521416530078        1.26723648043789        1.06211483484832
H            4.01101631637540        1.09948001686589       -0.68137975761795
H            2.70229750626737        2.13371721654138       -0.07695957377782
H            3.56507423213543       -1.65927794186210        0.04636274227282
H           -1.69421751510453        3.11054961319754       -0.02612946623105
H           -2.84981523010363        2.11104789359520       -0.95236661151952
H           -2.90138479627103        2.09387219365863        0.81303270770652
H           -1.06697644056588       -3.14286153371993        0.83282654602971
H           -1.04299305915671       -3.12429986167948       -0.95186232300824
H           -2.50141594194013       -2.56988920683839       -0.07328099838693
H            1.21269967666462       -3.21376980609844       -0.01461007118894
25
 energy: 18.278243227350 xtb: 6.6.1 (8d0f1dd)
C            3.23852843890603        1.19800567518500        0.08717976894145
N            2.30711650729498        0.08955841168871        0.03336321093369
C            2.56850253877599       -1.30289411632445        0.03211843481737
N            1.36349447755654       -2.09025623328963       -0.00022678475825
C            0.41591317509287       -1.07894040949877       -0.00953939576797
C            0.92467302097228        0.22011725089507        0.01187559295474
C            0.11097785335816        1.39920540979274       -0.00445988591866
O            0.47418118839764        2.58235071796534        0.00053559583876
N           -1.27718071726670        1.08352877643480       -0.03227893802805
C           -2.24306221318911        2.17633298906084       -0.05065033446184
C           -1.81220778673363       -0.16441477740024       -0.04963184015720
O           -3.01133832293214       -0.36738360816905       -0.07460879497072
N           -0.92805257843732       -1.25453821122793       -0.03799342113049
C           -1.40111774325677       -2.60698965961903       -0.05840609490587
H            3.73901084904529        1.27418448938716        1.06020988169649
H            4.00895437633205        1.11454439219931       -0.68459923903596
H            2.69812497157357        2.13740258840592       -0.07210227618596
H            3.56687101037785       -1.65358008561221        0.04799542653195
H           -1.70016606424628        3.11945221453093       -0.02651495105767
H           -2.85453389423181        2.11770533863575       -0.95228820403555
H           -2.90580053368689        2.10054416948864        0.81247458329724
H           -1.04005003719640       -3.12643951570750        0.83398247663173
H           -1.01619743841043       -3.10879528574118       -0.95092107172519
H           -2.48621346004777       -2.58089954431468       -0.07280931941713
H            1.17178668692442       -3.28877218802157       -0.01567050789227
25
 energy: 23.933822610296 xtb: 6.6.1 (8d0f1dd)
C            3.23923591374338        1.20114623072742        0.08733951956253
N            2.30899658326423        0.09230363976447        0.03271810121511
C            2.56782597827237       -1.30225447969936        0.03354376075406
N            1.36087398389850       -2.09489499585836       -0.00003392503678
C            0.41762722002234       -1.08147183789461       -0.00967441188755
C            0.92527817866583        0.21865461388445        0.01135772854834
C            0.11218253144038        1.39965818533067       -0.00448402953325
O            0.47112575051689        2.58097321059001        0.00104420198469
N           -1.27851629821615        1.08750961618497       -0.03259345399066
C           -2.24404261037797        2.17911406696003       -0.05078002390388
C           -1.81261781981544       -0.16292649418812       -0.04991077411766
O           -3.01081889107542       -0.36866171079266       -0.07501146310497
N           -0.92805797527583       -1.24947417770915       -0.03814963461493
C           -1.39847462139403       -2.60413693762519       -0.05821004248803
H            3.74068684231720        1.27621741870867        1.05953523779177
H            4.00821402557849        1.11972458078090       -0.68550385583303
H            2.69773306339190        2.14034975550861       -0.07050378064404
H            3.56995208238287       -1.64387790322261        0.04827007148600
H           -1.70233679620830        3.12256115647844       -0.02670291822094
H           -2.85558579485054        2.11967195560254       -0.95237170782376
H           -2.90660792338093        2.10255255494809        0.81249904905565
H           -1.03560219753244       -3.12038197616793        0.83449248862028
H           -1.01180400235576       -3.10308986843972       -0.95079452039742
H           -2.48277917733906       -2.58379665386386       -0.07260792280242
H            1.15972625929989       -3.33644116126363       -0.01643378242454
25
 energy: 32.369476741243 xtb: 6.6.1 (8d0f1dd)
C            3.24103379568871        1.20564322677629        0.08755232489938
N            2.31114557607863        0.09823301565865        0.03210958559857
C            2.56864355471881       -1.29436638205436        0.03631564577936
N            1.36249964206362       -2.08815885701802        0.00046114929927
C            0.41865900017628       -1.08205301978168       -0.00993382765688
C            0.92627814380454        0.21897604409242        0.01084660606046
C            0.11261937416173        1.40277899917248       -0.00462456151514
O            0.46858728894253        2.58127422526456        0.00150941904721
N           -1.27854742526618        1.09111483958423       -0.03293738884666
C           -2.24471367312986        2.18032862937603       -0.05087188184232
C           -1.81356708390081       -0.16287313528625       -0.04997679333868
O           -3.01048966232925       -0.36919442681972       -0.07491560965139
N           -0.92783593893437       -1.24490871913097       -0.03835996057521
C           -1.39902723281578       -2.60223739317115       -0.05815588832478
H            3.74206438241407        1.27806480592445        1.05955296486994
H            4.00886344089317        1.12232859251908       -0.68544462520328
H            2.70020359798635        2.14483411015116       -0.07025277198443
H            3.57317471530486       -1.63022516728587        0.04697988479560
H           -1.70479239028797        3.12448646999631       -0.02683029709035
H           -2.85624257709822        2.12015448748974       -0.95246087117295
H           -2.90700403397648        2.10303330374168        0.81263184017934
H           -1.03631495641417       -3.11667187083945        0.83457909015427
H           -1.01262532611321       -3.09956624687978       -0.95075264149111
H           -2.48267208211579       -2.58366327440160       -0.07249973587769
H            1.15227417512119       -3.40830346833423       -0.01748774391798
25
 energy: 39.116312403101 xtb: 6.6.1 (8d0f1dd)
C            3.24349080989589        1.21366937701596        0.08775503913174
N            2.31365532727079        0.10807289997263        0.03135424351376
C            2.56802495202805       -1.28393577218590        0.04075868324756
N            1.36337536017536       -2.08096530882512        0.00159679844344
C            0.42208761220549       -1.08102862509543       -0.01010243928160
C            0.92712643946583        0.22287216485831        0.01032101140388
C            0.11356821822659        1.40816994362834       -0.00466142647569
O            0.46340024616997        2.58450347306289        0.00207284757205
N           -1.27920994151334        1.09710801861959       -0.03333588720243
C           -2.24653270426096        2.18279360122957       -0.05101501366334
C           -1.81305216191506       -0.16134783475148       -0.05003089044042
O           -3.00864401438645       -0.36920916605496       -0.07485010710663
N           -0.92635538105932       -1.23635985021046       -0.03860230206706
C           -1.39643969035210       -2.59760450510219       -0.05804120194399
H            3.74417773005074        1.28320275900915        1.05953327601069
H            4.01006584819544        1.12856344051158       -0.68562197454466
H            2.70371268428060        2.15335207148051       -0.06984304433225
H            3.57624033430860       -1.61047862793622        0.04483712932408
H           -1.70937560705569        3.12825430626934       -0.02699507340097
H           -2.85808312643517        2.12113647164361       -0.95260968463138
H           -2.90858668845764        2.10398294968224        0.81270378973091
H           -1.03188174772458       -3.10963680128436        0.83422324526279
H           -1.00828961147168       -3.09282560522926       -0.95004064310774
H           -2.47948565559148       -2.58347026071759       -0.07237503975954
H            1.12922507292256       -3.53979033084669       -0.01999742348865
25
 energy: 32.756711327361 xtb: 6.6.1 (8d0f1dd)
C            3.24938118010684        1.23062735022988        0.08815094839135
N            2.31867391303496        0.13153883275963        0.03060662111826
C            2.55919889084523       -1.25087807747226        0.04659117969670
N            1.36870972501540       -2.04791177251799        0.00442805825703
C            0.43241381509601       -1.07122071435940       -0.01014967418992
C            0.93092576230319        0.23795378680782        0.00960814919429
C            0.11616892839387        1.42428144075869       -0.00437514803168
O            0.44975611979411        2.59070160894313        0.00269930902109
N           -1.27845699805447        1.11265651107337       -0.03393195473343
C           -2.24923941510985        2.18809307253101       -0.05126367369540
C           -1.80946966132487       -0.16061927262902       -0.05001650487461
O           -3.00134489108822       -0.37057825052402       -0.07490433076232
N           -0.92037472293790       -1.21561512478036       -0.03878424685997
C           -1.38952658289634       -2.58826759009352       -0.05770535522896
H            3.74735589102800        1.29068662692933        1.05919141089627
H            4.01101813970644        1.13906705916669       -0.68634703138687
H            2.70909769850679        2.16937856974774       -0.06888348206764
H            3.57520590840685       -1.56656856208776        0.04261506349362
H           -1.71727456408257        3.13527484333887       -0.02725183560902
H           -2.86049008279266        2.12223503753639       -0.95291956586986
H           -2.91068628343239        2.10509818298144        0.81282728042382
H           -1.02072072685270       -3.09660529810065        0.83140742214083
H           -0.99729547972035       -3.08024608007680       -0.94646647981352
H           -2.47109125138354       -2.58602615506454       -0.07212664077169
H            1.07027899241061       -3.85402723635365       -0.02596560654379
25
 energy: 27.969628749984 xtb: 6.6.1 (8d0f1dd)
C            3.25157486064910        1.24382155573172        0.08858007177470
N            2.31600792678716        0.14850068601132        0.03218552890297
C            2.54202276923646       -1.21668459951891        0.04535727714205
N            1.38338371599004       -2.01061193924644        0.00609588061322
C            0.44268195000380       -1.05488924191046       -0.00954260015539
C            0.93407819072249        0.25797952044880        0.00940326874380
C            0.11412400638812        1.44538762053565       -0.00466710674825
O            0.43849927819360        2.60303758845925        0.00346837260517
N           -1.27381768784101        1.12649010105400       -0.03439407387704
C           -2.25101749258344        2.19254213491941       -0.05148068577303
C           -1.80285873810065       -0.16164346667850       -0.04998974098275
O           -2.99265095032311       -0.36782111647136       -0.07472682201704
N           -0.91072186765589       -1.20067448460772       -0.03835913056513
C           -1.38193957635344       -2.58067229494503       -0.05733788685997
H            3.74851965632148        1.29695104754788        1.05862761168181
H            4.01077423450606        1.14623959599275       -0.68603245735643
H            2.71571806998863        2.18486859768459       -0.06826217247527
H            3.56396533614159       -1.53013989906832        0.04210534436317
H           -1.72585246071914        3.14298608021564       -0.02755430278106
H           -2.86216000553035        2.12211394864144       -0.95290762373729
H           -2.91212030341051        2.10492441947514        0.81252870111784
H           -1.00858079631411       -3.08763104985723        0.82796054271911
H           -0.98548731813311       -3.07135697688397       -0.94230863946100
H           -2.46314526826633       -2.58521209740128       -0.07183937229243
H            1.02121677527496       -4.15947694138431       -0.02987607238719
25
 energy: 20.428533559999 xtb: 6.6.1 (8d0f1dd)
C            3.25168011968477        1.25061417889630        0.08772247542942
N            2.30560357379679        0.15962088919864        0.03806203855265
C            2.52676665563287       -1.16666371759466        0.03465312188901
N            1.42854980484901       -1.91496938648168        0.00649781871111
C            0.44675915777953       -1.00504263405654       -0.00823423447136
C            0.93614918470656        0.29999361642348        0.01141621219140
C            0.10039074537100        1.47231688411391       -0.00491505628580
O            0.43836574791434        2.63118799559349        0.00330914740989
N           -1.26453768194202        1.12625630190684       -0.03378714886318
C           -2.25071897871878        2.18941370834827       -0.05123746699576
C           -1.79636575857425       -0.16986544998323       -0.04969876275286
O           -2.98936921084761       -0.35731940469485       -0.07399951107087
N           -0.89909836426141       -1.20455673577664       -0.03737131633869
C           -1.37653807320323       -2.58346340693039       -0.05744697927763
H            3.74550398426382        1.29818159747785        1.05944012641241
H            4.01231323875952        1.14066585572932       -0.68503241477604
H            2.72045015955420        2.19241534184224       -0.07139614910362
H            3.53878355833122       -1.53116732854931        0.04676895657235
H           -1.72682102795772        3.14153767554172       -0.02724655398317
H           -2.86126184466589        2.11854832534711       -0.95258394169216
H           -2.91152281174800        2.10102604933926        0.81232523433494
H           -1.00758257747327       -3.09766446076779        0.82668823838396
H           -0.98473268353248       -3.08057456936619       -0.94178416177161
H           -2.46065210565368       -2.57604035876244       -0.07187772041941
H            0.99009949290712       -4.44542217805068       -0.03323803989037
25
 energy: 19.849870658722 xtb: 6.6.1 (8d0f1dd)
C            3.25822611220892        1.27345700487698        0.08666918216149
N            2.30699865964503        0.18847188699226        0.04002073365028
C            2.53478626922149       -1.13001991991525        0.03429742003919
N            1.45735742452315       -1.86251614286512        0.00462020407843
C            0.44511958758823       -0.97056964917508       -0.00755952728787
C            0.93659940445510        0.33089729006456        0.01356860957110
C            0.08814024352464        1.48740780748070       -0.00339352832525
O            0.43524946776068        2.65198152277222        0.00217681928193
N           -1.26142129460364        1.12399390139500       -0.03241130336377
C           -2.25224644456392        2.18714003443830       -0.05092620344123
C           -1.79136108268235       -0.17211703509136       -0.04862684551568
O           -2.98764750779908       -0.34835794007250       -0.07325932491854
N           -0.89610354081708       -1.21055717388289       -0.03691487041442
C           -1.37562242777245       -2.58362428488657       -0.05792545743447
H            3.74803787735401        1.31151731130817        1.06178629187606
H            4.01940762286156        1.14482170963461       -0.68344939680410
H            2.73167410992429        2.21464358995780       -0.07692045067766
H            3.53631373816866       -1.52659348668135        0.05005664002157
H           -1.72664397696367        3.13926915450905       -0.02676674540536
H           -2.86091751215279        2.11517072358282       -0.95291905738690
H           -2.91169699211921        2.09752717956295        0.81288964042683
H           -1.01629060907937       -3.10608957401136        0.82715002511596
H           -0.99336938867120       -3.08789870124830       -0.94409636679695
H           -2.46149016697188       -2.56187128064994       -0.07213758035860
H            0.94911473193331       -4.71705513935173       -0.03889499589748
25
 energy: 19.706640509395 xtb: 6.6.1 (8d0f1dd)
C            3.26204793101250        1.28749260813752        0.08779395921677
N            2.30875083243923        0.20967427468120        0.04007708182634
C            2.54567291045243       -1.11424499267090        0.03327449221625
N            1.45925163777237       -1.85136201261377        0.00457575668414
C            0.44315929460652       -0.95826858104530       -0.00716880319288
C            0.93641612414128        0.34174362781542        0.01474678114212
C            0.08377013897898        1.49288796453338       -0.00353852543645
O            0.43467724337278        2.65925996718990        0.00066694042642
N           -1.26182946685552        1.12439993472951       -0.03220161871813
C           -2.25418844919468        2.18766465028910       -0.05093920476303
C           -1.78826538901832       -0.16891191116601       -0.04865745799498
O           -2.98570190336477       -0.34576320447872       -0.07300130020159
N           -0.89412896070195       -1.21297873296616       -0.03686066142980
C           -1.37291199664769       -2.58201252838711       -0.05774834534564
H            3.75051951067129        1.31886009945616        1.06411901864836
H            4.02215576087439        1.14854128828525       -0.68185702951575
H            2.73758965085637        2.22780231519194       -0.07711849052981
H            3.53986505685524       -1.52076839863597        0.04633762291617
H           -1.72665897559439        3.13883057466252       -0.02686988118790
H           -2.86158774691753        2.11473174102763       -0.95323726002329
H           -2.91269100646618        2.09721168809104        0.81302380955433
H           -1.01766721620641       -3.10893428669204        0.82743189055702
H           -0.99450042178740       -3.09074822824214       -0.94407017947461
H           -2.46039715510332       -2.55747573959775       -0.07213046977598
H            0.91886690079718       -4.84860332885070       -0.03961421340355
25
 energy: 19.668831886580 xtb: 6.6.1 (8d0f1dd)
C            3.26181124477582        1.28668877028876        0.08729807774270
N            2.30673033085919        0.21221823516253        0.04003583711663
C            2.54717216748670       -1.11169572861393        0.03334096508075
N            1.45850694670954       -1.84729765366758        0.00400475379014
C            0.44268804495595       -0.95519570622911       -0.00700915270371
C            0.93607049977651        0.34340489025490        0.01550363191348
C            0.08263447590393        1.49430694308065       -0.00323401751326
O            0.43517251684104        2.66008616650946        0.00076038681062
N           -1.26228899875382        1.12430957835595       -0.03185788541162
C           -2.25504511622562        2.18784069740819       -0.05083764377232
C           -1.78745472850410       -0.16722261639388       -0.04848495280800
O           -2.98471241803891       -0.34698053032838       -0.07312276352068
N           -0.89226808913346       -1.21431213036785       -0.03686188618804
C           -1.37116238168453       -2.58134909612832       -0.05796122998496
H            3.75038546408084        1.31796051725239        1.06337876705165
H            4.02176177709415        1.14680828674421       -0.68220834847725
H            2.73838922097322        2.22728610974223       -0.07774623392215
H            3.53749685613441       -1.52415301154559        0.04823962906173
H           -1.72691480839836        3.13861706845461       -0.02672794436696
H           -2.86205503274860        2.11466397708821       -0.95318186950547
H           -2.91330999478360        2.09710872742222        0.81305139336846
H           -1.01611258416567       -3.10922380588154        0.82699434969016
H           -0.99300757162340       -3.09079735723939       -0.94423289201873
H           -2.45917304820762       -2.55702270759759       -0.07227167625307
H            0.91689953164885       -4.85702083502713       -0.03983538298555
25
 energy: 19.658318194198 xtb: 6.6.1 (8d0f1dd)
C            3.26142347366788        1.28634982549604        0.08768328754738
N            2.30533637740625        0.21332207473758        0.04002523540564
C            2.54862831995569       -1.11070523154838        0.03264920866647
N            1.45786598051631       -1.84638015314875        0.00377663628178
C            0.44249617249751       -0.95494129193102       -0.00697483827865
C            0.93604378213598        0.34328280087299        0.01579278140446
C            0.08245215406918        1.49434787839074       -0.00352134992826
O            0.43528444487745        2.65986858339764        0.00045452514433
N           -1.26254035073007        1.12349441371413       -0.03196284241886
C           -2.25501603272799        2.18775668265213       -0.05093882365095
C           -1.78711193423441       -0.16594865582776       -0.04863781251442
O           -2.98413058776430       -0.34841819979956       -0.07314797417784
N           -0.89139727947243       -1.21578765078553       -0.03691539767636
C           -1.37163648745820       -2.58099927420643       -0.05775723090100
H            3.75035313587840        1.31814901725846        1.06359000292868
H            4.02162961409161        1.14734536131378       -0.68167294645884
H            2.73913975731980        2.22787291930027       -0.07705345784886
H            3.53679587213848       -1.52618345216162        0.04704946889868
H           -1.72631709516277        3.13821019450967       -0.02686948613119
H           -2.86190378723725        2.11470605280206       -0.95326156673132
H           -2.91306688725129        2.09717520424503        0.81300194138868
H           -1.01748413144017       -3.10959685458246        0.82724261712335
H           -0.99441684225853       -3.09146572506265       -0.94394004707988
H           -2.45971490456273       -2.55608679911556       -0.07206122582013
H            0.91950154071806       -4.85633893177679       -0.03951679297835
25
 energy: 19.655049276197 xtb: 6.6.1 (8d0f1dd)
C            3.26147280825439        1.28565019850476        0.08720246714660
N            2.30481836067664        0.21307658625595        0.04003521333797
C            2.54846072647432       -1.11091487056735        0.03338828528962
N            1.45706527612667       -1.84635154696430        0.00373301473525
C            0.44206717793761       -0.95507381278828       -0.00691294078045
C            0.93599716403364        0.34333801638866        0.01602625627615
C            0.08266501780861        1.49450496512213       -0.00319558572590
O            0.43500630917325        2.66009962936835        0.00075133386945
N           -1.26279213328365        1.12336497556057       -0.03173569126962
C           -2.25523885536022        2.18793729389201       -0.05080486247647
C           -1.78751130461111       -0.16477848548202       -0.04848427858466
O           -2.98437071425854       -0.34852101296210       -0.07315154041058
N           -0.89171586088928       -1.21578986899824       -0.03698975064424
C           -1.37152627672208       -2.58094566245234       -0.05808503579811
H            3.75035467177651        1.31776832389151        1.06321788116990
H            4.02163525543196        1.14610923015029       -0.68220076493711
H            2.73956496539466        2.22753756956115       -0.07804108385606
H            3.53620819103194       -1.52722315975944        0.04813852365560
H           -1.72670682169187        3.13850450585022       -0.02666546630263
H           -2.86207499133464        2.11486454362849       -0.95317016709812
H           -2.91337961771179        2.09730560755537        0.81307820700777
H           -1.01699544848804       -3.10977731878205        0.82681517174508
H           -0.99386755645536       -3.09128238796237       -0.94437280058895
H           -2.45962700061257       -2.55680738240328       -0.07240206237080
H            0.92270496227137       -4.85356714786365       -0.03914041119515
25
 energy: 19.652777165645 xtb: 6.6.1 (8d0f1dd)
C            3.26136176240935        1.28582001331735        0.08774675379544
N            2.30501018799666        0.21273819557293        0.03998363126345
C            2.54811989499997       -1.11122973576483        0.03270129078969
N            1.45678867761654       -1.84654116142779        0.00351415951403
C            0.44192688399495       -0.95522163934685       -0.00707884761995
C            0.93605910357685        0.34334468145960        0.01574229513367
C            0.08298422203644        1.49434927716280       -0.00351332611541
O            0.43489067786693        2.66006210107700        0.00042674220518
N           -1.26271703697851        1.12320474026336       -0.03199196685344
C           -2.25502294444298        2.18787071013523       -0.05096544962651
C           -1.78766227923399       -0.16466743927093       -0.04863875412949
O           -2.98447171910809       -0.34865769419541       -0.07309656898186
N           -0.89199003938303       -1.21556483439937       -0.03700099395338
C           -1.37177549064357       -2.58085641701414       -0.05771257796878
H            3.75018639173073        1.31767094929056        1.06379933151229
H            4.02153221622140        1.14695014101838       -0.68173135795578
H            2.73903529293214        2.22755630253393       -0.07698222598334
H            3.53623682037944       -1.52711243381374        0.04686027899403
H           -1.72636402757954        3.13835477824942       -0.02689383559217
H           -2.86193064901373        2.11479526632727       -0.95330333383775
H           -2.91308958926867        2.09728181311230        0.81300478159188
H           -1.01730224531819       -3.10942705969639        0.82734368380137
H           -0.99430804625332       -3.09137350205348       -0.94392450910535
H           -2.45975393791360       -2.55635665213709       -0.07197874833382
H            0.92447017834828       -4.85396161165610       -0.03927654034944
