25
 energy: -42.545616915787 xtb: 6.6.1 (8d0f1dd)
C            3.24286757078999        1.19653677711490        0.08695013551692
N            2.30736639055724        0.09572820718877        0.03392790797950
C            2.54543226522726       -1.24304919946477        0.03332996960838
N            1.42257793430082       -1.95167914597108        0.00356818920263
C            0.41921214446014       -1.04865934749149       -0.00963286327373
C            0.93625352729392        0.24343079813604        0.01010100162167
C            0.10318824988682        1.41694142790287       -0.00504146811615
O            0.47710692059066        2.57620870648372        0.00017926067433
N           -1.25840256772652        1.08038512030573       -0.03166824457947
C           -2.23234108227987        2.16381725462092       -0.04984362473778
C           -1.80675681016642       -0.19367184224919       -0.04943851963278
O           -3.00491970513464       -0.36488965951014       -0.07517641799604
N           -0.92396885409047       -1.26548496776189       -0.03815999264224
C           -1.43714383918103       -2.62112874910589       -0.06022862442016
H            3.72829510151359        1.24526586801620        1.06353162321135
H            4.00922903591452        1.07813402129851       -0.67936036832271
H            2.70001935740142        2.13044321578416       -0.07275092602890
H            3.55181592553674       -1.62628509893352        0.04540914117681
H           -1.68966772549941        3.10593522669522       -0.02517439914775
H           -2.83956258159701        2.10263430577613       -0.95274097145194
H           -2.89151562102480        2.08492867132271        0.81430732175269
H           -1.10076783811081       -3.15946066991411        0.82705936325828
H           -1.07670725277031       -3.13988343472047       -0.94974550445854
H           -2.52090996787755       -2.56332848889637       -0.07467140739420
H            1.12537854170045       -3.63967429122077       -0.01791078681233
