25
 energy: 0.000000000000 xtb: 6.6.1 (8d0f1dd)
C            3.23720163006194        1.16630919979326        0.08434469647475
N            2.29877817382611        0.07527477071623        0.03981603040599
C            2.58028210190900       -1.21425402444508        0.03006176031096
N            1.43813958087363       -1.93419271955128        0.00098261760884
C            0.39035688448383       -1.05887472636071       -0.00790371836672
C            0.93510056364412        0.21347819449412        0.01709077491437
C            0.09450143893243        1.40504303904423       -0.00410947031874
O            0.49712751527797        2.54126714362870       -0.00342325688240
N           -1.25076640035757        1.06271879480407       -0.03085478223738
C           -2.21907211982101        2.15522099834493       -0.05001256985998
C           -1.81739487048744       -0.20012725993278       -0.04692818574614
O           -2.99983886758376       -0.37846417018721       -0.07008878229737
N           -0.92618586207120       -1.30210215599479       -0.03682761578324
C           -1.46982264913417       -2.64643102187190       -0.06029820460571
H            3.71247264356769        1.21471455160235        1.06488849150277
H            4.00791497605742        1.03430808813993       -0.67357694370751
H            2.69910007168542        2.09770118228144       -0.09130154882931
H            3.56654120610678       -1.63682992603973        0.04233140067262
H           -1.67107961066214        3.09322851271934       -0.02552706933167
H           -2.82428953597071        2.09428624779827       -0.95318082946668
H           -2.87644029173232        2.07745725625962        0.81450067533302
H           -1.17061996399332       -3.19584890659852        0.83242232437030
H           -1.14560257411436       -3.17511610292205       -0.95688275822323
H           -2.55549792440841       -2.55659984320617       -0.07459039797972
H            1.38130855184625       -2.94313852034425       -0.01389874181052
25
 energy: -3.049039600739 xtb: 6.6.1 (8d0f1dd)
C            3.23963202588589        1.18234239233061        0.08622687550647
N            2.30424572411199        0.08790148781631        0.03765317907896
C            2.58541692619271       -1.25095162343806        0.02992244199360
N            1.41284025201153       -1.98621378832241        0.00035188519041
C            0.39972724652363       -1.06474386350119       -0.00866527082133
C            0.92993083516154        0.22069616853743        0.01506425199128
C            0.10199647959709        1.40390533669000       -0.00468745125492
O            0.49573672646181        2.57160881228942       -0.00288012559013
N           -1.26066256150712        1.06239338524683       -0.03124233577635
C           -2.22739112788052        2.15587511651935       -0.05004053823957
C           -1.81895598008184       -0.19072174385656       -0.04786659487359
O           -3.01499621281623       -0.37469292962896       -0.07128550144218
N           -0.92968796632421       -1.29179119412453       -0.03733224871153
C           -1.45179410658374       -2.63524158904021       -0.05983309061407
H            3.72420873962729        1.23883163125481        1.06530273991313
H            4.01021573155867        1.06125999950662       -0.67686342187784
H            2.70138314665705        2.11526736477380       -0.08550717988578
H            3.56871116866220       -1.65928552658233        0.04359950654099
H           -1.67648704296737        3.09364068353047       -0.02565717361379
H           -2.83477343363986        2.09964888840712       -0.95328097514315
H           -2.88679777780291        2.08271497546149        0.81452603870678
H           -1.13166710018709       -3.17658332447893        0.83243946293762
H           -1.10703611519912       -3.15666228214461       -0.95486751034313
H           -2.53704469633870       -2.55832707514065       -0.07410843729432
H            1.31546378681351       -3.04184269993377       -0.01393463023028
25
 energy: 1.223940826552 xtb: 6.6.1 (8d0f1dd)
C            3.24042513893343        1.18800958167126        0.08728270462107
N            2.30762039840806        0.08893046326738        0.03454510993535
C            2.58115125513736       -1.28313323360121        0.03061378878014
N            1.38451583353776       -2.02881226913636        0.00033447736678
C            0.40641973649631       -1.06774620593198       -0.00938894986673
C            0.92596543463090        0.22270926341419        0.01268581729361
C            0.10863740229554        1.39607122367519       -0.00522142557983
O            0.48536651226558        2.57703539510209       -0.00185147124037
N           -1.27141290231611        1.06704576904648       -0.03184661373593
C           -2.23495346319609        2.16226351096003       -0.05017482281767
C           -1.81758250154948       -0.17836493512258       -0.04893920864301
O           -3.01722362009943       -0.37144686378500       -0.07302562328456
N           -0.93229140213316       -1.27403891911139       -0.03783655461463
C           -1.42640492795328       -2.62173393564295       -0.05920425188238
H            3.73443611379915        1.25674951986864        1.06330745504011
H            4.01093132858960        1.08875383718294       -0.68154886496675
H            2.69764536230884        2.12188058072641       -0.07721104384665
H            3.56562895961426       -1.67425452764193        0.04587237999084
H           -1.68300437098765        3.10011511697785       -0.02586445990966
H           -2.84505159101887        2.10801908287182       -0.95258848029403
H           -2.89663024324935        2.09090524448452        0.81368667256852
H           -1.08367219318688       -3.15301686088193        0.83282450250741
H           -1.05943804938878       -3.13429620058654       -0.95258670160054
H           -2.51194852523384       -2.56975551784600       -0.07358349952942
H            1.24308498223237       -3.12286051778894       -0.01324704014438
25
 energy: 3.680673552091 xtb: 6.6.1 (8d0f1dd)
C            3.23954539470328        1.18734419039525        0.08734394596948
N            2.30890331142983        0.08622122366995        0.03297030511213
C            2.57669919013781       -1.29373757967647        0.03167179145991
N            1.37347553303906       -2.04144187701566        0.00068728167483
C            0.40751983770009       -1.06953034760844       -0.00950687386085
C            0.92528488195495        0.22122710045963        0.01174503721717
C            0.11124636247260        1.39382650993636       -0.00526993355223
O            0.47984615340481        2.57510801802837       -0.00121360510278
N           -1.27589882078610        1.07219523369088       -0.03228849554063
C           -2.23719793687795        2.16802591153200       -0.05042134443174
C           -1.81831420978975       -0.17353085979213       -0.04959861321498
O           -3.01725324117997       -0.37205169855453       -0.07429001351275
N           -0.93356839482446       -1.26533977472004       -0.03801208118069
C           -1.41424559530805       -2.61720595236742       -0.05873654221195
H            3.73733040725773        1.25820345978242        1.06144169645854
H            4.00839152560685        1.09862306495767       -0.68471951646751
H            2.69246353848262        2.12064351627832       -0.07218045324519
H            3.56442363761033       -1.67697822446850        0.04728924991515
H           -1.68540561469628        3.10573150216458       -0.02613921389169
H           -2.84800074668063        2.11350606169049       -0.95249885941830
H           -2.89926468737234        2.09636864715241        0.81329109732705
H           -1.06215604722345       -3.14186666873637        0.83384187845986
H           -1.03794039775485       -3.12395199237968       -0.95182216439940
H           -2.49988158813742       -2.58116105008239       -0.07326510718213
H            1.21621217476747       -3.15119981216470       -0.01328557023399
25
 energy: 4.284404179983 xtb: 6.6.1 (8d0f1dd)
C            3.23903516852152        1.18657999143701        0.08731785733220
N            2.30958338326126        0.08482384158840        0.03225155700325
C            2.57502241012989       -1.29492647965189        0.03264291861376
N            1.37178369810932       -2.04256034314428        0.00103830911876
C            0.40737304061149       -1.07078437866249       -0.00956721953677
C            0.92557787232118        0.21982539148791        0.01129894816712
C            0.11235984014198        1.39375709919010       -0.00533430213385
O            0.47804867631398        2.57379520063974       -0.00084913683591
N           -1.27683573129353        1.07420558525087       -0.03255889425532
C           -2.23728404926158        2.16997528604910       -0.05056553205263
C           -1.81931184147015       -0.17282193632819       -0.04991773479389
O           -3.01744740506854       -0.37306379337996       -0.07482375544503
N           -0.93422511582362       -1.26278054636171       -0.03810607695956
C           -1.41170706181773       -2.61648144079347       -0.05852508207055
H            3.73809956798038        1.25628832600099        1.06057365892904
H            4.00655882544967        1.10073954669268       -0.68605242519720
H            2.69035347640552        2.11944218556873       -0.07002354949975
H            3.56462245936494       -1.67485228648540        0.04769292099039
H           -1.68575419452749        3.10763225789753       -0.02632111594274
H           -2.84818931541617        2.11546735961780       -0.95260033695889
H           -2.89927135709104        2.09836608613719        0.81325764579714
H           -1.05790620000371       -3.13859837888322        0.83443312933395
H           -1.03364873518101       -3.12103844327617       -0.95169336546247
H           -2.49702489012845       -2.58573216253741       -0.07311861057835
H            1.21240214640808       -3.15822936588180       -0.01341591141538
25
 energy: 4.480054504751 xtb: 6.6.1 (8d0f1dd)
C            3.23883723989755        1.18608366477399        0.08731469044357
N            2.31004691254120        0.08403151606982        0.03165423302949
C            2.57421401407879       -1.29444721549390        0.03383518708966
N            1.37219219999155       -2.04149880658767        0.00143949892628
C            0.40705867739692       -1.07162147821258       -0.00971826748824
C            0.92580314700530        0.21897973037238        0.01086499273779
C            0.11319700869702        1.39397647105542       -0.00546264830170
O            0.47734942405360        2.57338936930707       -0.00055741939643
N           -1.27690604108514        1.07480687045592       -0.03277751495636
C           -2.23704597498279        2.17036877957582       -0.05064817639933
C           -1.82010209410946       -0.17292945487468       -0.05009753122063
O           -3.01773425707761       -0.37354032451289       -0.07505009095452
N           -0.93474141395699       -1.26177226912923       -0.03822068536192
C           -1.41167943751877       -2.61643633133990       -0.05843716101445
H            3.73858066629349        1.25463707428719        1.06013914285021
H            4.00559364803583        1.10131056280986       -0.68672822370924
H            2.68968632099863        2.11876733268706       -0.06879681701544
H            3.56490439546392       -1.67242838811566        0.04747016508743
H           -1.68581513059271        3.10813895481363       -0.02643525989824
H           -2.84804940400778        2.11608872081484       -0.95266496046372
H           -2.89896243755969        2.09900514509640        0.81329866501828
H           -1.05764106489567       -3.13748858706693        0.83469818248908
H           -1.03339002887306       -3.12013351024177       -0.95166111431697
H           -2.49676460001547       -2.58736707335136       -0.07304456092642
H            1.21358289815752       -3.16089215102080       -0.01338043010089
25
 energy: 4.510646138015 xtb: 6.6.1 (8d0f1dd)
C            3.23888802808795        1.18594978803713        0.08735489595496
N            2.31027233835427        0.08380958594123        0.03120268622742
C            2.57396569831301       -1.29389101576640        0.03539734319704
N            1.37312479843550       -2.04010719472181        0.00181512677098
C            0.40681830030587       -1.07185348339750       -0.00994294839703
C            0.92575510555654        0.21901424383823        0.01048795460634
C            0.11373931405566        1.39420779132132       -0.00560710757475
O            0.47737381388590        2.57381170431204       -0.00040959613021
N           -1.27672145346826        1.07452530799636       -0.03292694120801
C           -2.23687373864307        2.16993718038182       -0.05067663495425
C           -1.82042254867758       -0.17318555318657       -0.05014000033686
O           -3.01796932681375       -0.37341137772893       -0.07499829121456
N           -0.93501301809427       -1.26169501855489       -0.03833951481466
C           -1.41249723108311       -2.61659972491755       -0.05844782241920
H            3.73876217373018        1.25400971275706        1.06014854051777
H            4.00555985233603        1.10124368658697       -0.68681810124150
H            2.68986410035511        2.11864893999367       -0.06843578153594
H            3.56499166222089       -1.67125299116942        0.04640448075066
H           -1.68583519740061        3.10788339270632       -0.02647460815775
H           -2.84798734290746        2.11585361789103       -0.95266787517586
H           -2.89877744369429        2.09875329441172        0.81333803890474
H           -1.05866324401781       -3.13765100957666        0.83468390284668
H           -1.03445135656341       -3.12038636602233       -0.95165189113072
H           -2.49755693823128       -2.58694570340545       -0.07303157222959
H            1.21586832189418       -3.16164020555540       -0.01323038710838
25
 energy: 4.515500058504 xtb: 6.6.1 (8d0f1dd)
C            3.23897203138341        1.18604957235426        0.08742522327408
N            2.31028999074177        0.08390486661801        0.03111790902921
C            2.57398453270427       -1.29401400423992        0.03680085721350
N            1.37333083088904       -2.03979550420724        0.00197497613259
C            0.40681458500451       -1.07166829665370       -0.01010478067356
C            0.92561590450062        0.21945104489382        0.01036646378481
C            0.11383246797957        1.39426006959035       -0.00568164065034
O            0.47754307478966        2.57418435094230       -0.00047066022237
N           -1.27673525605281        1.07426769037075       -0.03297743629012
C           -2.23693401928147        2.16971266148723       -0.05067580879710
C           -1.82028093227707       -0.17318348639284       -0.05011437746065
O           -3.01795248144141       -0.37319619316476       -0.07485460919645
N           -0.93497093587790       -1.26194736293626       -0.03841526965342
C           -1.41271654549598       -2.61666014465030       -0.05848549207969
H            3.73863925645459        1.25434086326302        1.06035434615296
H            4.00590302202846        1.10116616292706       -0.68656353144066
H            2.69003957647872        2.11876952077973       -0.06864886142880
H            3.56490618918004       -1.67163299166307        0.04497587020225
H           -1.68583874684140        3.10766357954220       -0.02646512393372
H           -2.84807837485719        2.11563394461060       -0.95265208384064
H           -2.89884712478701        2.09850252086959        0.81333460771486
H           -1.05896317320767       -3.13797286994670        0.83460661274273
H           -1.03476849951864       -3.12073431397397       -0.95164843947304
H           -2.49784550540061       -2.58631431730218       -0.07304867267983
H            1.21627480084072       -3.16175876094592       -0.01311618227932
