25
 energy: -42.209341197716 gnorm: 0.005542009065 xtb: 6.6.1 (8d0f1dd)
C            3.11090373566036        1.21881086367214        0.07813704636913
N            2.17712651713647        0.12733471711128        0.04488500676095
C            2.50473800223056       -1.18335777270927        0.04551365416163
N            1.37311583076082       -1.93640256828159        0.02312119289730
C            0.30430932351938       -1.09363372032258        0.01147739940760
C            0.80036911785850        0.21853253466556        0.02740846342899
C           -0.08583596134850        1.29083180363803        0.01390586017516
O            0.32024425414764        2.56939910651486       -0.04092366508109
N           -1.43873300062140        0.99837306270211        0.02694337293701
C           -2.36541030947879        1.98365686635500        0.08472285437386
C           -1.94933123909324       -0.33511841245646       -0.06382819513403
O           -3.13442378593755       -0.53726298269852       -0.13665529505934
N           -1.02259229538883       -1.36962741323052       -0.04515925587862
C           -1.49990811040770       -2.73627100099847       -0.09860296437023
H            3.66062090930642        1.22104616189222        1.02082388793367
H            3.82476138476053        1.13041233973400       -0.74158788145729
H            2.56679799506989        2.15453826368073       -0.01742232547143
H            3.50159493354094       -1.56835847321338        0.05245418580495
H           -0.43821781665028        3.14378170775968       -0.23892364089914
H           -3.38568087503508        1.71049751890876       -0.07002794631808
H           -2.11044454373124        2.98028148381737        0.38044504592780
H           -1.17147963505553       -3.28643715654875        0.78346112550343
H           -1.13977186615766       -3.22917981952849       -1.00218620465674
H           -2.58807675455700       -2.70968674116082       -0.11831075240454
H            1.34575570357159       -2.94392182770279        0.01150064894915
