25
 energy: 0.000000000000 xtb: 6.6.1 (8d0f1dd)
C            3.23720163006194        1.16630919979326        0.08434469647475
N            2.29877817382611        0.07527477071623        0.03981603040599
C            2.58028210190900       -1.21425402444508        0.03006176031096
N            1.43813958087363       -1.93419271955128        0.00098261760884
C            0.39035688448383       -1.05887472636071       -0.00790371836672
C            0.93510056364412        0.21347819449412        0.01709077491437
C            0.09450143893243        1.40504303904423       -0.00410947031874
O            0.49712751527797        2.54126714362870       -0.00342325688240
N           -1.25076640035757        1.06271879480407       -0.03085478223738
C           -2.21907211982101        2.15522099834493       -0.05001256985998
C           -1.81739487048744       -0.20012725993278       -0.04692818574614
O           -2.99983886758376       -0.37846417018721       -0.07008878229737
N           -0.92618586207120       -1.30210215599479       -0.03682761578324
C           -1.46982264913417       -2.64643102187190       -0.06029820460571
H            3.71247264356769        1.21471455160235        1.06488849150277
H            4.00791497605742        1.03430808813993       -0.67357694370751
H            2.69910007168542        2.09770118228144       -0.09130154882931
H            3.56654120610678       -1.63682992603973        0.04233140067262
H           -1.67107961066214        3.09322851271934       -0.02552706933167
H           -2.82428953597071        2.09428624779827       -0.95318082946668
H           -2.87644029173232        2.07745725625962        0.81450067533302
H           -1.17061996399332       -3.19584890659852        0.83242232437030
H           -1.14560257411436       -3.17511610292205       -0.95688275822323
H           -2.55549792440841       -2.55659984320617       -0.07459039797972
H            1.38130855184625       -2.94313852034425       -0.01389874181052
25
 energy: -3.221149808000 xtb: 6.6.1 (8d0f1dd)
C            3.24674905404473        1.17885214860300        0.07981879715083
N            2.30498936807379        0.09901082746134        0.03803312633443
C            2.60076058396026       -1.22571247932316        0.03104292552978
N            1.42924325923723       -1.93702464380039        0.01034983760808
C            0.38359052419042       -1.05894893039273       -0.00192657902400
C            0.92386646065372        0.21742006790620        0.01914556312273
C            0.09357827263286        1.38466609643800        0.00277403206571
O            0.50504074379462        2.54715908750354        0.00957928933945
N           -1.27919267156637        1.04125566246403       -0.04199171222754
C           -2.20411547806405        2.16770768984746       -0.02835209396231
C           -1.88974068481993       -0.21238090214977       -0.12826447475427
O           -3.09603652034510       -0.37066772009850       -0.18170149352863
N           -0.95885601052384       -1.30555566974655       -0.04316754041149
C           -1.45864797425656       -2.66199758189680       -0.04033285035203
H            3.72615479543489        1.23098934728610        1.06127430122753
H            4.01825942509004        1.03633158757885       -0.67927832832816
H            2.70771487096751        2.10592874342973       -0.10364905060624
H            3.58423066279752       -1.64373467235406        0.03477611216303
H           -1.63435861523435        3.09660490018678        0.01228151059035
H           -2.80714845026195        2.13522946939678       -0.93310173785409
H           -2.85655581561324        2.09119069720492        0.83995767131626
H           -1.13664469616323       -3.20326136449791        0.85351510331196
H           -1.12527634593516       -3.19598302929354       -0.93249602946096
H           -2.54306608222282       -2.58640336868101       -0.04510755175014
H            1.37767599206524       -2.94164736090032       -0.00614493135299
25
 energy: 5.466673761999 xtb: 6.6.1 (8d0f1dd)
C            3.25630601866974        1.18860389206672        0.07074130587382
N            2.30340952974448        0.12287207918542        0.03516554457118
C            2.61166761851362       -1.23251078921853        0.03441995856456
N            1.41319900719724       -1.93275774133475        0.02349733735406
C            0.36718564348240       -1.05859282065034        0.00907059387841
C            0.90560330641050        0.21952293147280        0.02451226270487
C            0.08657339532735        1.35272282824423        0.01184602669334
O            0.49979016328903        2.53166386344957        0.02853368668017
N           -1.32119664726892        1.01309881818591       -0.05704670658981
C           -2.18040868394651        2.19246313537755        0.00718446468688
C           -1.98974052756111       -0.22994064609842       -0.24829402958576
O           -3.20553184555957       -0.35839343756718       -0.39312765446256
N           -1.00332386938978       -1.30704187661206       -0.05205963012354
C           -1.43665145293770       -2.68617378618725       -0.00834407900606
H            3.74256817441971        1.25342485776876        1.05143441503710
H            4.03204092885043        1.03357024143870       -0.68591243698790
H            2.72590759027926        2.11717631441498       -0.12516666954622
H            3.59507729654976       -1.64069421261476        0.02377352116343
H           -1.57226192375243        3.10185191948472        0.07622236138120
H           -2.78712274096132        2.21792467220315       -0.89556803587144
H           -2.82156298454137        2.12092746391449        0.88464903272234
H           -1.07251851718794       -3.20885644467853        0.88714709587063
H           -1.09649126119305       -3.23583978831198       -0.89173776018274
H           -2.52185777484148       -2.64981028725083        0.01006287522224
H            1.38155422434389       -2.93618258451038        0.00603041609912
25
 energy: 17.154963747348 xtb: 6.6.1 (8d0f1dd)
C            3.25898168611471        1.19003779062328        0.06511553287062
N            2.29400617846912        0.13270804349162        0.03517009503696
C            2.60469686444054       -1.23298487840687        0.04311975597786
N            1.39892794874565       -1.92876101277764        0.02997023317328
C            0.34805769315179       -1.06115807694550        0.00426967294541
C            0.88984000769511        0.21682103987182        0.02276043482946
C            0.07028345540207        1.33640911238424        0.00633439478201
O            0.48158443870667        2.51777328564662        0.04120941197880
N           -1.35978431166744        0.99728409814358       -0.08050155195648
C           -2.16235953276732        2.21863360867445        0.04200209315029
C           -2.06371447816528       -0.24096641270913       -0.35833876471278
O           -3.27102201150010       -0.34884221118971       -0.58004659514745
N           -1.03764648254431       -1.30871455843992       -0.07562135440059
C           -1.41299087846381       -2.70939602010992        0.01988038587985
H            3.74626278447823        1.26868033253102        1.04586256232142
H            4.04124615778912        1.02086679530131       -0.68398081105450
H            2.74511352401394        2.12534975382875       -0.14649076176703
H            3.59224546661252       -1.63175356768790        0.02191814598741
H           -1.51110519908732        3.10145409015887        0.14031386582741
H           -2.77523296393128        2.31467269705079       -0.85423868417559
H           -2.78693821309763        2.15190500560687        0.93202781931576
H           -1.00028879095131       -3.19888990044137        0.91993294592794
H           -1.07018086271585       -3.27953108014600       -0.85169054350648
H           -2.49937087103011       -2.72857948018938        0.06969177417088
H            1.39160305823856       -2.93398985209797        0.01836383869285
25
 energy: 22.181839515871 xtb: 6.6.1 (8d0f1dd)
C            3.25488641486863        1.18536509216923        0.06723990772881
N            2.28191430238175        0.13149942301252        0.03775855435322
C            2.58905959943673       -1.22914319770501        0.05418396639870
N            1.39000417782827       -1.92710912777758        0.02492362541596
C            0.33300382977173       -1.06463936890498       -0.01614857251622
C            0.87948452478993        0.21201818333539        0.01195846135353
C            0.05527020710424        1.33461739981262       -0.01352032804463
O            0.46897155442218        2.50809620174090        0.03619429319868
N           -1.38392863841623        0.99592432011372       -0.10403184684345
C           -2.15436044416233        2.23487668323389        0.06413754047951
C           -2.09889321142685       -0.24224785675955       -0.41782518661848
O           -3.28827444764279       -0.34033387643031       -0.67393776348992
N           -1.05497519787179       -1.31096554898508       -0.10527289604360
C           -1.39410883661699       -2.72259329048498        0.03438376883790
H            3.73448556566249        1.27285758847072        1.05089183321742
H            4.04477209735921        1.00274288677866       -0.67109238811190
H            2.75666371280760        2.12654357547635       -0.15983436756043
H            3.58120516178385       -1.62135270465209        0.02977650562503
H           -1.47578505433408        3.09565333496134        0.17926086947935
H           -2.77219097984502        2.38604936318712       -0.82000226840152
H           -2.76224287424701        2.16928884441829        0.96578613133133
H           -0.94332586225473       -3.17667701147400        0.93785272564615
H           -1.05400837851904       -3.31010847445370       -0.82724525215207
H           -2.47756431712707       -2.78716141274707        0.11664481453649
H            1.40215176218361       -2.93417242416451        0.02495176832746
25
 energy: 21.621021478582 xtb: 6.6.1 (8d0f1dd)
C            3.24787073850158        1.17946659988359        0.07094340568448
N            2.27170150747131        0.12612325176320        0.04050114489874
C            2.57394779908421       -1.22366070092901        0.06324154132401
N            1.38579211327575       -1.92690755451595        0.01581253687230
C            0.32439386682929       -1.06713912497534       -0.03264866600887
C            0.87385525323293        0.20811759575599        0.00226150270022
C            0.04840736750097        1.33810704158579       -0.02915402509476
O            0.46790419264434        2.50166233248558        0.02263903775436
N           -1.39129165605184        1.00182684857467       -0.11470058990028
C           -2.15316263909380        2.23833869023426        0.07317212669887
C           -2.10395333257572       -0.23758181001616       -0.42477952981023
O           -3.27807439624107       -0.33271778087804       -0.71513107649353
N           -1.05782219864312       -1.31370932261162       -0.12261981027007
C           -1.38341977455885       -2.72482780507769        0.03895418400011
H            3.71699695508608        1.27123201852155        1.05849035149306
H            4.04355101669601        0.98694512723951       -0.65779867949487
H            2.75889607226827        2.12261919875508       -0.16739298848010
H            3.56912752059526       -1.61287744107599        0.03493554630470
H           -1.46607943384609        3.08707741949983        0.19271380620306
H           -2.77320901803083        2.41866073606461       -0.79784003747506
H           -2.75103071324361        2.17070193894554        0.98113739416561
H           -0.91270461801489       -3.15513462197377        0.94052736840649
H           -1.04855533574518       -3.32106607305891       -0.81774436234046
H           -2.46012896994435       -2.81173480463697        0.14543746527286
H            1.40920235073962       -2.93449315738786        0.02607624973669
25
 energy: 20.041337473148 xtb: 6.6.1 (8d0f1dd)
C            3.24334448155111        1.17693298260906        0.07261057058047
N            2.26733712693247        0.12344943184195        0.04179734550469
C            2.56750354329032       -1.22085098078800        0.06979622126177
N            1.38425373218383       -1.92732273812428        0.01091661596264
C            0.32194065231619       -1.06747023936997       -0.03949584705649
C            0.87147884023810        0.20728730843377       -0.00364426679838
C            0.04787270112696        1.33956764387456       -0.03549797892578
O            0.47008531413808        2.50077362042219        0.01671225035701
N           -1.38933241677980        1.00527792849891       -0.11893595095689
C           -2.15373491262494        2.23610624343252        0.07542633427449
C           -2.09722512130428       -0.23368736307198       -0.42229584059217
O           -3.26415702234603       -0.32939333771755       -0.72583980768074
N           -1.05481990834391       -1.31591004802112       -0.13034769316784
C           -1.38097203289518       -2.72308149042895        0.04093195409873
H            3.70539182425307        1.27071144242046        1.06292629055597
H            4.04200266633610        0.97945715079162       -0.65061495849728
H            2.75610840207882        2.11866585807056       -0.17165424094973
H            3.56302052247577       -1.61037997579207        0.03448374590124
H           -1.46536287204306        3.08208011091876        0.19792963549053
H           -2.77548891550711        2.42754295327962       -0.78990108153542
H           -2.75037819332182        2.16378844785338        0.98377914496362
H           -0.90217070225201       -3.14384653784619        0.93951908936218
H           -1.05083017710767       -3.32248712642929       -0.81496413362135
H           -2.45360223824590       -2.81390201594376        0.15738271871026
H            1.40994937378716       -2.93428066674234        0.02601377890584
25
 energy: 19.373376486067 xtb: 6.6.1 (8d0f1dd)
C            3.24177105665738        1.17645585630766        0.07285649735910
N            2.26629352809575        0.12295699098103        0.04249670727554
C            2.56603047167002       -1.22037784006589        0.07544937569479
N            1.38330693723000       -1.92758468430990        0.00939378176686
C            0.32140381005646       -1.06692655003643       -0.04141761863120
C            0.87052662644773        0.20776290480099       -0.00622859266635
C            0.04827085236215        1.33947869163816       -0.03626782449447
O            0.47073104728067        2.50173362733864        0.01579932429545
N           -1.38726069742797        1.00615742553544       -0.12037025014839
C           -2.15386504381845        2.23448212219644        0.07689860238367
C           -2.09284115227121       -0.23134144825764       -0.42325223246686
O           -3.25764640410200       -0.32794284892923       -0.73519291507421
N           -1.05285383413950       -1.31688893507954       -0.13492529652850
C           -1.38078430001718       -2.72193776243088        0.04266155635599
H            3.70041211547358        1.27221705842399        1.06448484392147
H            4.04203447880212        0.97653629988832       -0.64742740327654
H            2.75432974339828        2.11678859438848       -0.17482160374145
H            3.56091300786878       -1.61102908318436        0.03054805213839
H           -1.46543453881834        3.08040520873014        0.20224609510526
H           -2.77591509977899        2.42968742556027       -0.78702612382381
H           -2.75185696272550        2.15807956321730        0.98411873970739
H           -0.89647863973326       -3.13889420323603        0.93920921038428
H           -1.05485453706293       -3.32387703492394       -0.81338591029428
H           -2.45244380558830       -2.81283459877426        0.16466561556044
H            1.40842600807700       -2.93407817760688        0.02652126534476
25
 energy: 18.725058403982 xtb: 6.6.1 (8d0f1dd)
C            3.24116108182706        1.17658958287796        0.07321425448270
N            2.26641918078068        0.12281372204685        0.04366962068931
C            2.56613959114189       -1.22075554461136        0.08404444869346
N            1.38263298094530       -1.92778953225082        0.00887538212653
C            0.32163830897973       -1.06614342912243       -0.04297583589199
C            0.87035030222025        0.20853679659278       -0.00856811548240
C            0.04852469953699        1.33895949786435       -0.03640230912467
O            0.47006705130093        2.50306393262089        0.01604832114183
N           -1.38520436304093        1.00632972977046       -0.12200601330450
C           -2.15424354851540        2.23284523713925        0.07834041160764
C           -2.08819485513722       -0.22889501281416       -0.42741782033507
O           -3.25129008904856       -0.32720760887369       -0.74043639891093
N           -1.05066224318621       -1.31769033694391       -0.14103654037698
C           -1.38136125204779       -2.72076770245518        0.04420405915239
H            3.69716761557806        1.27525131203710        1.06574722830075
H            4.04304961271048        0.97481439543146       -0.64433604471371
H            2.75310518768687        2.11549103472937       -0.17792293945182
H            3.55980175596485       -1.61298933395604        0.02276470430577
H           -1.46654106710239        3.07944338975321        0.20698865768960
H           -2.77565586110847        2.42969538741549       -0.78563712650110
H           -2.75446044051689        2.15183846525508        0.98381019941389
H           -0.89248325683502       -3.13514368007017        0.93867448492766
H           -1.06106190848326       -3.32627359601883       -0.81193848080881
H           -2.45251724171658       -2.80900973381308        0.17133346504586
H            1.40583342600189       -2.93397837043273        0.02799628347193
25
 energy: 18.473255996082 xtb: 6.6.1 (8d0f1dd)
C            3.24150782669527        1.17705330882439        0.07337289112591
N            2.26730240478860        0.12287635452969        0.04515935622436
C            2.56727605307077       -1.22153563629496        0.09323541062773
N            1.38258701469687       -1.92779658773939        0.00947678967228
C            0.32235017769113       -1.06571332299193       -0.04293657655705
C            0.87102977448637        0.20894804394084       -0.00891481593521
C            0.04851631603709        1.33835005521252       -0.03520759067399
O            0.46874674192289        2.50359046857171        0.01660356133411
N           -1.38428850069397        1.00577530924561       -0.12165080402028
C           -2.15459581701593        2.23178539395733        0.07904205063916
C           -2.08595219757825       -0.22731908916464       -0.42936578759406
O           -3.24923479566165       -0.32702328024337       -0.74585998365725
N           -1.04930133920420       -1.31804087025397       -0.14496087497139
C           -1.38207143603703       -2.71998416617307        0.04470564696496
H            3.69680986053171        1.27829837580379        1.06595479307011
H            4.04418796672832        0.97442442207784       -0.64295722829056
H            2.75299205717991        2.11516814845567       -0.17993752001875
H            3.55967545614628       -1.61460508859831        0.01241914944054
H           -1.46766931519819        3.07886310795511        0.20962060185670
H           -2.77496972335084        2.42825973601783       -0.78587227799714
H           -2.75641239761397        2.14858596570572        0.98328970842620
H           -0.89058109849131       -3.13368125958790        0.93769949180671
H           -1.06632940182232       -3.32812967508011       -0.81141639212308
H           -2.45330827482127       -2.80512116857082        0.17563891124797
H            1.40394731545000       -2.93399994342775        0.02989538554932
25
 energy: 18.213750625194 xtb: 6.6.1 (8d0f1dd)
C            3.24220995120883        1.17771247972123        0.07420134551060
N            2.26856474744020        0.12290584994763        0.04794792497206
C            2.56912179108608       -1.22259548322550        0.10907810037167
N            1.38299810448842       -1.92770770238337        0.01082157469365
C            0.32358211840719       -1.06552014482858       -0.04363329998841
C            0.87247834238977        0.20900424200128       -0.00916558472163
C            0.04823680863185        1.33751894000183       -0.03471110484132
O            0.46669565511941        2.50337111526841        0.01736856628719
N           -1.38391257788819        1.00464725456389       -0.12133391241172
C           -2.15512664539560        2.23091929635571        0.07935169282246
C           -2.08422045085407       -0.22569531289588       -0.43261640093791
O           -3.24780034831886       -0.32728124858486       -0.74681935330744
N           -1.04765701091508       -1.31838068895033       -0.15055535859325
C           -1.38298166836785       -2.71923947136155        0.04444985407010
H            3.69754316632248        1.28208310601129        1.06640034366359
H            4.04554784301833        0.97432354343168       -0.64132662166591
H            2.75337676357164        2.11515499930241       -0.18147509878920
H            3.55943691822529       -1.61574435722958       -0.00550716002769
H           -1.46904905744250        3.07831151271668        0.21164846918395
H           -2.77408150370258        2.42619778863977       -0.78722410398101
H           -2.75845215314442        2.14636571405924        0.98242240573652
H           -0.88917391252681       -3.13260052374243        0.93618764527795
H           -1.07269017511440       -3.33058859200011       -0.81129449208508
H           -2.45448702099137       -2.80004377758190        0.17946697545767
H            1.40205498268853       -2.93408993706511        0.03335148945053
25
 energy: 18.116503451972 xtb: 6.6.1 (8d0f1dd)
C            3.24282652668610        1.17825578141238        0.07553025053956
N            2.26950585706364        0.12289157352331        0.05186430295037
C            2.57114549303645       -1.22351386852792        0.13179768197986
N            1.38385711358883       -1.92759317123098        0.01282264317415
C            0.32506100510457       -1.06583549860549       -0.04486075793129
C            0.87437556917941        0.20840979733906       -0.00898142887478
C            0.04795008733007        1.33673900574100       -0.03474603818863
O            0.46490876385205        2.50204935968838        0.01797850394412
N           -1.38427625478961        1.00317558941041       -0.12002069250606
C           -2.15543341692496        2.23060982283278        0.07890030612188
C           -2.08415712548211       -0.22458819547987       -0.43404532142059
O           -3.24889388846798       -0.32779799483094       -0.74575099692553
N           -1.04598411623279       -1.31863363684942       -0.15536836871698
C           -1.38345522619066       -2.71879174465594        0.04323145668379
H            3.69938546048032        1.28515283223487        1.06677650596851
H            4.04611702351291        0.97414527668613       -0.64028765625999
H            2.75409930732922        2.11539432133790       -0.18190573093861
H            3.55804388993178       -1.61471076516605       -0.03158277147842
H           -1.46990735045272        3.07790851582333        0.21153039730943
H           -2.77306587706600        2.42385773515343       -0.78936090475904
H           -2.75951357986721        2.14680062512018        0.98139366354258
H           -0.88864845162700       -3.13248420320511        0.93431004583510
H           -1.07757853696028       -3.33259283746552       -0.81185864121282
H           -2.45522861347366       -2.79561667005932        0.18140253039629
H            1.40108100837590       -2.93420304805472        0.03826491691446
25
 energy: 18.220071410524 xtb: 6.6.1 (8d0f1dd)
C            3.24268853113845        1.17810368830642        0.07663784964876
N            2.26913216184917        0.12277985364017        0.05392895473646
C            2.57194865102408       -1.22355989401434        0.14682010937735
N            1.38447899024740       -1.92762663079872        0.01404037923597
C            0.32572691982628       -1.06648566175542       -0.04665552183586
C            0.87533178870782        0.20745455954105       -0.00932769497102
C            0.04796986497469        1.33667401217392       -0.03602796235769
O            0.46493946003551        2.50048576419656        0.01792168881197
N           -1.38501174198761        1.00259680294579       -0.11915507689739
C           -2.15515581942507        2.23130781506217        0.07783397678624
C           -2.08593241189692       -0.22506833634167       -0.43290784569285
O           -3.25169936500012       -0.32832352935134       -0.74044672360500
N           -1.04529736056201       -1.31855829590470       -0.15570017276000
C           -1.38289588458844       -2.71909985132345        0.04171847587681
H            3.70098992461343        1.28443408522336        1.06699741770941
H            4.04505464173851        0.97389736798163       -0.64060836410870
H            2.75456200333648        2.11568046639421       -0.18025532994020
H            3.55511662191980       -1.61110019304424       -0.04828302792237
H           -1.46948251628646        3.07832054235227        0.20889031240743
H           -2.77284021456851        2.42314922547208       -0.79078507471577
H           -2.75844908301907        2.14993174632119        0.98096622902510
H           -0.88970336935732       -3.13359324982367        0.93364438469687
H           -1.07624482683603       -3.33243120705569       -0.81289697854295
H           -2.45480247226634       -2.79568438389378        0.17886959943980
H            1.40179017431855       -2.93425609413193        0.04181429174494
25
 energy: 18.426250469730 xtb: 6.6.1 (8d0f1dd)
C            3.24171894929453        1.17725242558691        0.07728012790362
N            2.26745674518945        0.12255311530603        0.05403155916378
C            2.57140184727462       -1.22284510257804        0.15307584002232
N            1.38439255450644       -1.92786306503339        0.01473085782553
C            0.32536691372865       -1.06708674001386       -0.04835219051559
C            0.87502842094587        0.20656744244638       -0.01042729694370
C            0.04826034587875        1.33732394340197       -0.03793497236834
O            0.46659431084139        2.49945877067870        0.01725404239715
N           -1.38543485621152        1.00328525182546       -0.11926878157079
C           -2.15440029878595        2.23252373199582        0.07665841697207
C           -2.08829847648595       -0.22661129024022       -0.42987135451417
O           -3.25460630922354       -0.32850203118696       -0.73480900945601
N           -1.04543658814025       -1.31823707329686       -0.15199602958911
C           -1.38146173318075       -2.71988455786525        0.04061791239281
H            3.70149913807501        1.28055690252941        1.06717264520581
H            4.04272583488092        0.97323453503384       -0.64176336852937
H            2.75448396435970        2.11573284807924       -0.17743277567967
H            3.55147978467117       -1.60624231810301       -0.05540908480317
H           -1.46816196783377        3.07935786597669        0.20523551056073
H           -2.77339856840136        2.42420291322951       -0.79082991969555
H           -2.75592361905401        2.15363601197877        0.98118282668202
H           -0.89152976082813       -3.13499463897950        0.93439685865845
H           -1.06958428045272       -3.33047182911958       -0.81387373971832
H           -2.45330944376294       -2.79969163843503        0.17346343449493
H            1.40335176065069       -2.93422687104513        0.04390238725194
25
 energy: 18.383849141520 xtb: 6.6.1 (8d0f1dd)
C            3.24087400271116        1.17664568312904        0.07765218549726
N            2.26623105372252        0.12236888351395        0.05446964386115
C            2.57081372260396       -1.22247525396277        0.15877783166567
N            1.38370034536052       -1.92810912800592        0.01573610200465
C            0.32487083799932       -1.06702266589265       -0.04914695542239
C            0.87444274321272        0.20642929203386       -0.01169746797644
C            0.04836222360444        1.33770680693024       -0.03896712578191
O            0.46748582711471        2.49958061834244        0.01676424648742
N           -1.38483139035918        1.00423021258178       -0.12039221350345
C           -2.15401340582490        2.23277176499271        0.07645484726394
C           -2.08825077651737       -0.22699192153683       -0.42920307416516
O           -3.25424091149602       -0.32819456362928       -0.73471533287991
N           -1.04519946364664       -1.31816894365653       -0.15058673565295
C           -1.38064241521018       -2.72006669340604        0.04070431752621
H            3.70063430972383        1.27888592751896        1.06764941176450
H            4.04154682505736        0.97210644405169       -0.64156083600454
H            2.75403708363030        2.11531742206304       -0.17667616192885
H            3.54979382963428       -1.60440125151322       -0.06285897642388
H           -1.46772156833802        3.07983747657122        0.20468072630843
H           -2.77386705274401        2.42533766338119       -0.79003064298894
H           -2.75499102231211        2.15347114653847        0.98135818788028
H           -0.89159693349861       -3.13462303694205        0.93515318179437
H           -1.06621477271092       -3.32966216574677       -0.81380612351059
H           -2.45233998764255       -2.80175653104734        0.17173027815216
H            1.40333156386170       -2.93418858413734        0.04554458218032
25
 energy: 18.344499373509 xtb: 6.6.1 (8d0f1dd)
C            3.24042600220716        1.17621534531322        0.07739092695454
N            2.26549394538551        0.12229361575855        0.05361029763869
C            2.57035109043166       -1.22226365808658        0.15778302755687
N            1.38279158284234       -1.92829364015618        0.01668347740127
C            0.32427166270418       -1.06662634161113       -0.04897987332106
C            0.87380208721094        0.20665764430760       -0.01283995679027
C            0.04831176595664        1.33808940556753       -0.03941380840926
O            0.46817591368400        2.50018426442543        0.01632063023179
N           -1.38387494471698        1.00547207764779       -0.12186133141783
C           -2.15375206021315        2.23286107133057        0.07659670462149
C           -2.08773972413792       -0.22773672535002       -0.42868770785821
O           -3.25338481267689       -0.32798517049535       -0.73536207298969
N           -1.04554675447487       -1.31784843622383       -0.14813294304099
C           -1.38016716587040       -2.72020460949110        0.04107676450110
H            3.69997943674028        1.27732007341864        1.06764389232539
H            4.04092332316387        0.97168070950907       -0.64182088800128
H            2.75371135477805        2.11509822843961       -0.17618874065580
H            3.54899288147893       -1.60407106428190       -0.06239775215186
H           -1.46776591936176        3.08049834696178        0.20477098415491
H           -2.77456569796442        2.42623527361098       -0.78890326637344
H           -2.75425622521549        2.15240699342413        0.98177640390099
H           -0.89239461338909       -3.13462733019165        0.93621705337827
H           -1.06264204024387       -3.32838206452034       -0.81363514865122
H           -2.45191098702845       -2.80377616840703        0.16946564083800
H            1.40298456664600       -2.93416923872793        0.04592158230494
25
 energy: 18.231558458248 xtb: 6.6.1 (8d0f1dd)
C            3.24050938953354        1.17623766231007        0.07720299982187
N            2.26556802100075        0.12232002189101        0.05346785953617
C            2.57066784363571       -1.22253511384254        0.16095175624782
N            1.38203698519199       -1.92833143087733        0.01836921347973
C            0.32417682663871       -1.06606504427429       -0.04866279954599
C            0.87391281483981        0.20692840201623       -0.01375928603238
C            0.04787184863804        1.33807752115020       -0.03959462119632
O            0.46789979618253        2.50047822644716        0.01610738982619
N           -1.38275778581773        1.00630869210371       -0.12317817861152
C           -2.15374505841430        2.23260174295859        0.07699864054929
C           -2.08659859964968       -0.22829377639683       -0.42929876038092
O           -3.25211072029467       -0.32803473112249       -0.73682354599509
N           -1.04573327790168       -1.31742593399528       -0.14754716632131
C           -1.38022591492843       -2.72000314641755        0.04123665618023
H            3.69991011601490        1.27759419661056        1.06753668811722
H            4.04117474838309        0.97162124023264       -0.64171455885912
H            2.75372411515039        2.11508667573118       -0.17652175632017
H            3.54855075467698       -1.60492899478033       -0.06617489993752
H           -1.46846596086159        3.08088373299449        0.20578213648651
H           -2.77501685638255        2.42620255810315       -0.78815194725077
H           -2.75416244679624        2.15047068926081        0.98210570452421
H           -0.89302801583070       -3.13438596430925        0.93667479824791
H           -1.06171212112778       -3.32785286806331       -0.81345789275192
H           -2.45219723697607       -2.80373632850582        0.16840828149390
H            1.40196540303126       -2.93418942705295        0.04707718483929
25
 energy: 18.205614362979 xtb: 6.6.1 (8d0f1dd)
C            3.24085168289850        1.17656337062023        0.07697966517910
N            2.26608725979416        0.12241631724331        0.05305847307828
C            2.57107591372005       -1.22277142680386        0.16042100674844
N            1.38199668676759       -1.92821360841548        0.01906451440053
C            0.32439387452305       -1.06586254367632       -0.04827419608021
C            0.87441259023022        0.20694128018898       -0.01372221761090
C            0.04741701910425        1.33793668551131       -0.03959462875196
O            0.46753721339051        2.50018926458673        0.01624579848657
N           -1.38237878812473        1.00638922649841       -0.12337766303379
C           -2.15381307233729        2.23244616940242        0.07720190888070
C           -2.08614842353446       -0.22899461973772       -0.42960530448999
O           -3.25183825272465       -0.32836013133062       -0.73690214265486
N           -1.04617939245968       -1.31700392634901       -0.14761911191598
C           -1.38059158572175       -2.71977783248434        0.04098989452764
H            3.70034997497329        1.27828831628127        1.06723328136524
H            4.04168568561289        0.97223462046220       -0.64191397741357
H            2.75396142412851        2.11539993653924       -0.17685052936194
H            3.54851019728661       -1.60584905526724       -0.06489729956849
H           -1.46888902318421        3.08085932818974        0.20618614974672
H           -2.77510415805026        2.42567738683618       -0.78807386140467
H           -2.75409298393077        2.14990548878748        0.98232919066501
H           -0.89361830331289       -3.13444095624620        0.93652917326839
H           -1.06234712902098       -3.32769989085808       -0.81358293801516
H           -2.45276954824505       -2.80303465247239        0.16812963679116
H            1.40170580615338       -2.93421014533437        0.04707907331107
