25
 energy: 0.000000000000 xtb: 6.6.1 (8d0f1dd)
C            3.23720163006194        1.16630919979326        0.08434469647475
N            2.29877817382611        0.07527477071623        0.03981603040599
C            2.58028210190900       -1.21425402444508        0.03006176031096
N            1.43813958087363       -1.93419271955128        0.00098261760884
C            0.39035688448383       -1.05887472636071       -0.00790371836672
C            0.93510056364412        0.21347819449412        0.01709077491437
C            0.09450143893243        1.40504303904423       -0.00410947031874
O            0.49712751527797        2.54126714362870       -0.00342325688240
N           -1.25076640035757        1.06271879480407       -0.03085478223738
C           -2.21907211982101        2.15522099834493       -0.05001256985998
C           -1.81739487048744       -0.20012725993278       -0.04692818574614
O           -2.99983886758376       -0.37846417018721       -0.07008878229737
N           -0.92618586207120       -1.30210215599479       -0.03682761578324
C           -1.46982264913417       -2.64643102187190       -0.06029820460571
H            3.71247264356769        1.21471455160235        1.06488849150277
H            4.00791497605742        1.03430808813993       -0.67357694370751
H            2.69910007168542        2.09770118228144       -0.09130154882931
H            3.56654120610678       -1.63682992603973        0.04233140067262
H           -1.67107961066214        3.09322851271934       -0.02552706933167
H           -2.82428953597071        2.09428624779827       -0.95318082946668
H           -2.87644029173232        2.07745725625962        0.81450067533302
H           -1.17061996399332       -3.19584890659852        0.83242232437030
H           -1.14560257411436       -3.17511610292205       -0.95688275822323
H           -2.55549792440841       -2.55659984320617       -0.07459039797972
H            1.38130855184625       -2.94313852034425       -0.01389874181052
25
 energy: -4.279002057117 xtb: 6.6.1 (8d0f1dd)
C            3.24575674657155        1.17864454622691        0.08134056486273
N            2.30537392867246        0.09819583025267        0.03794970092952
C            2.59986288820261       -1.22766868590824        0.03102912752662
N            1.42797869961598       -1.93785841672316        0.00827038927538
C            0.38653417046222       -1.05810805572891       -0.00400464259070
C            0.92502793835187        0.21886386834943        0.01784858714185
C            0.09499728028951        1.38753642330878        0.00063735426645
O            0.50185784908584        2.55108855535031        0.00722804355890
N           -1.27449269484356        1.04372445297580       -0.04047579750909
C           -2.20840556059644        2.16246889020056       -0.03343354885758
C           -1.87074194617263       -0.20889557152987       -0.10857601607731
O           -3.07420022128268       -0.37442482922213       -0.15673204880411
N           -0.95243071690499       -1.30434444736598       -0.04266628164377
C           -1.46197441126532       -2.65730524179948       -0.04502145502434
H            3.72514830679916        1.22954277654745        1.06283898368417
H            4.01636059000058        1.03791232540459       -0.67877878039809
H            2.70490270135210        2.10516985905397       -0.10035240745976
H            3.58188528289454       -1.64821964662263        0.03685557346500
H           -1.63891421632405        3.09080842954492        0.00454327335229
H           -2.81238532745524        2.12715103912457       -0.93805734913935
H           -2.86186407247548        2.08740559965157        0.83452757010083
H           -1.14386915321249       -3.19980163321711        0.84893674152132
H           -1.12921123019931       -3.19136807290994       -0.93733188894652
H           -2.54681261114076       -2.57928870160093       -0.05202214545135
H            1.37183044751072       -2.94220069119116       -0.00751965163577
25
 energy: -1.031255207762 xtb: 6.6.1 (8d0f1dd)
C            3.25294550026402        1.18738404362754        0.07401111286385
N            2.30408641333327        0.11865080196092        0.03491874938465
C            2.60791689255178       -1.23636424455725        0.03465747801705
N            1.41071121008079       -1.93438083464001        0.01924019532231
C            0.37461374234011       -1.05651155395189        0.00293691125145
C            0.90904723773411        0.22286047129930        0.02032407957793
C            0.08958745264373        1.36118707587285        0.00721595177958
O            0.49041033654586        2.54117782881674        0.02525264865569
N           -1.30775675682720        1.02096413671147       -0.05549237756498
C           -2.19152019551351        2.17951753460496       -0.00580728209097
C           -1.93620516440792       -0.22055911728744       -0.20039957262949
O           -3.14649395558820       -0.37003159887612       -0.32602531829818
N           -0.98534752737385       -1.30477185284546       -0.05254462390288
C           -1.44541258381949       -2.67448528634767       -0.02003845844071
H            3.73967004731418        1.24931354114412        1.05426916600301
H            4.02627341922463        1.03836417503261       -0.68533148760899
H            2.71787305015241        2.11476760477019       -0.11662307587880
H            3.58756281882901       -1.65211546960778        0.02939539118949
H           -1.58420772748105        3.08763542747748        0.05800286551059
H           -2.80016288792592        2.19722825420317       -0.90856385092424
H           -2.83589991876793        2.10880831450478        0.86979435964497
H           -1.09293309570756       -3.19883919522312        0.87705248873887
H           -1.10602660162881       -3.22393403880023       -0.90327131238865
H           -2.53141576886176       -2.62969977336836       -0.00914104620286
H            1.36489873082558       -2.93713764234884        0.00320090413860
25
 energy: 4.089161278785 xtb: 6.6.1 (8d0f1dd)
C            3.25394894457430        1.18870434355009        0.06776456266297
N            2.29635104889428        0.12665904739377        0.03358181377767
C            2.60089740145824       -1.23931114959743        0.04260694787049
N            1.39591134900283       -1.93081914771544        0.02589294081954
C            0.36022553872891       -1.05726634905417       -0.00007583858720
C            0.89567230386481        0.22277496450532        0.01811430116254
C            0.07755660128940        1.34806580787969        0.00519222225915
O            0.46999352511452        2.53200446488660        0.04022700176662
N           -1.33708089030226        1.00859917866397       -0.07513466788516
C           -2.17873034117951        2.19856399777805        0.02264689059344
C           -1.98145473590491       -0.22782180805718       -0.28886558161597
O           -3.18429742939494       -0.36871918085138       -0.48810154873915
N           -1.00954624297600       -1.30493403039106       -0.07268649553538
C           -1.42683092371711       -2.69084086146478        0.00352025630927
H            3.74300791358076        1.26224115465319        1.04739300500300
H            4.03148857140235        1.03014211828153       -0.68699316903802
H            2.73073707729820        2.12123344196417       -0.13397033388985
H            3.58188889972196       -1.65046653055057        0.02863463015421
H           -1.53274850801768        3.08219919123454        0.11373403984043
H           -2.79372422129143        2.27835841342920       -0.87461814167426
H           -2.81054139779723        2.12960029519494        0.90772568704514
H           -1.03516830450575       -3.18472570811082        0.90666111005768
H           -1.08545388869443       -3.25987294530974       -0.86835905856468
H           -2.51431426614184       -2.69045818661582        0.03801543741782
H            1.36442664292876       -2.93488191952474        0.01412788493702
25
 energy: 6.597766710083 xtb: 6.6.1 (8d0f1dd)
C            3.24971643205098        1.18458321034203        0.06637396620370
N            2.28611407005692        0.12536217795527        0.03428468473376
C            2.58627232131414       -1.23799470577061        0.05347612363013
N            1.38576536186865       -1.92880841525828        0.02437438992634
C            0.34710632601481       -1.05894651610017       -0.01483654698922
C            0.88656476945494        0.22014778928836        0.00927709087713
C            0.06561043799952        1.34650419308433       -0.00729852234499
O            0.45494957612124        2.52524111673568        0.04319031678112
N           -1.35683862966236        1.00666516281001       -0.09477380321954
C           -2.17256673714159        2.21206353046236        0.04468140087228
C           -2.00253523846359       -0.22856323266697       -0.34924905713403
O           -3.18907484157925       -0.36672523684434       -0.59443180546731
N           -1.02325588893121       -1.30473714175206       -0.09967721859500
C           -1.41058276837408       -2.70072727342537        0.01900608545983
H            3.73363048892881        1.26650539999083        1.04779314950827
H            4.03267455328552        1.01553265896771       -0.68074903683521
H            2.73847553218417        2.12193768070018       -0.14763942870642
H            3.57008943469941       -1.64556686852535        0.03538845951571
H           -1.50114409497098        3.07497828430907        0.15490687890956
H           -2.79234347078575        2.34412772716880       -0.84262286631423
H           -2.79126988241549        2.14084125717289        0.93872441403366
H           -0.98416352628902       -3.15998828877112        0.92761013708400
H           -1.07196975029461       -3.28829414735622       -0.84231552048782
H           -2.49678361138448       -2.74033256829811        0.08001376222815
H            1.36777380424957       -2.93477719204700        0.02152684247747
25
 energy: 6.399845008490 xtb: 6.6.1 (8d0f1dd)
C            3.24287697639423        1.17841858009407        0.06787439260767
N            2.27683454460424        0.11970803146249        0.03579858533028
C            2.57111852171641       -1.23402428115859        0.06451032022909
N            1.38022683396532       -1.92801355907712        0.01737183313291
C            0.33794708833633       -1.06009046471414       -0.03117263151973
C            0.88143197343088        0.21739541902228       -0.00155647428173
C            0.05951013907350        1.35016550211734       -0.02159016599887
O            0.45178966258342        2.52063464768081        0.03579532484670
N           -1.36390816543086        1.01099290979087       -0.10653527977590
C           -2.17183300998882        2.21605373015557        0.05737610586873
C           -2.00311321396615       -0.22453386318834       -0.37004131250467
O           -3.17361997388293       -0.36321574816057       -0.65272380288894
N           -1.02705287722058       -1.30463422986077       -0.12151259655729
C           -1.40001948219922       -2.70211445944788        0.02633567917322
H            3.71678347508780        1.26514888713218        1.05300202532310
H            4.03130953832214        0.99969978680668       -0.67061080986452
H            2.73944461144401        2.11749725556212       -0.15747719635255
H            3.55734611720719       -1.63972980263428        0.04284565781351
H           -1.49195303580690        3.06705746900412        0.17653284562102
H           -2.79423607613579        2.37985704714375       -0.81777954237697
H           -2.78117195904516        2.13878768348252        0.95723206848087
H           -0.95024229055888       -3.13339581149081        0.93569617723610
H           -1.06716992417696       -3.30189784489450       -0.82806769581744
H           -2.48151556802271       -2.76569730258194        0.11149130891964
H            1.37143076220573       -2.93504098007398        0.02423907950307
25
 energy: 5.783107857045 xtb: 6.6.1 (8d0f1dd)
C            3.23890728455252        1.17552778138484        0.06882286728219
N            2.27327321600594        0.11690663133137        0.03629588159037
C            2.56510481877728       -1.23183292645182        0.07244784268608
N            1.37843419422983       -1.92821714168854        0.01267475644919
C            0.33530292353887       -1.05990506409906       -0.03897297500524
C            0.87961030470953        0.21700890105997       -0.00896858911919
C            0.05959953287347        1.35203292506534       -0.02854656320705
O            0.45469772173902        2.52071164717439        0.03059194384912
N           -1.36231186963559        1.01368034833342       -0.11062404070254
C           -2.17274126870575        2.21386850600482        0.06223142199797
C           -1.99706887725510       -0.22150024819556       -0.37399132228641
O           -3.16099969272738       -0.36102870104603       -0.67507769238482
N           -1.02580680460650       -1.30515058032135       -0.13147475943882
C           -1.39732637692388       -2.69963460981878        0.02974964835812
H            3.70482602303381        1.26479403469996        1.05719538925938
H            4.03105268084358        0.99111763393309       -0.66370200466347
H            2.73682549595867        2.11298461396279       -0.16375261479731
H            3.55163267317537       -1.63774149488964        0.04456753970425
H           -1.49276497042527        3.06289258840128        0.18629914843495
H           -2.79691830155070        2.38879464202412       -0.80711181599490
H           -2.78014047609367        2.12904222413544        0.96284037361715
H           -0.93765150787266       -3.11887871230401        0.93694668497501
H           -1.06954779254990       -3.30402974080998       -0.82269661291758
H           -2.47527254197078       -2.76753095865475        0.12677668111080
H            1.37149827881557       -2.93488369705941        0.02451270735008
25
 energy: 5.441899775609 xtb: 6.6.1 (8d0f1dd)
C            3.23735101177238        1.17461293005149        0.06962954264056
N            2.27249656821709        0.11598510587670        0.03662288685081
C            2.56357901580840       -1.23141431280939        0.08003707533900
N            1.37760436584741       -1.92857032813437        0.01030324449752
C            0.33504327700818       -1.05916761501351       -0.04370099145335
C            0.87909084627512        0.21762338235033       -0.01443589940445
C            0.06060490704333        1.35258556719603       -0.03222454210675
O            0.45675799405819        2.52219901274672        0.02729687704952
N           -1.35983876825226        1.01470290246946       -0.11344650104138
C           -2.17340801048912        2.21134368710132        0.06552818198438
C           -1.99246737044295       -0.21961988992839       -0.37964681672172
O           -3.15374347649886       -0.35954429611455       -0.68634270209123
N           -1.02436806804208       -1.30549971240312       -0.13893772027205
C           -1.39721053501417       -2.69738500007138        0.03236353405970
H            3.69742787296817        1.26677611845850        1.06040660066622
H            4.03274093202864        0.98669262234777       -0.65809497428713
H            2.73510103681772        2.11014184382851       -0.16861660965320
H            3.54957365941047       -1.63833106208666        0.04221266766650
H           -1.49458370588026        3.06111177833739        0.19448109304312
H           -2.79850388986537        2.39112301246228       -0.80180409178702
H           -2.78146538983428        2.11889157149321        0.96510319692651
H           -0.93064257171620       -3.11030516715973        0.93767204766090
H           -1.07483248387194       -3.30564963267963       -0.81943206037535
H           -2.47375890048935       -2.76454283416673        0.13710163787916
H            1.36966635107800       -2.93473108198037        0.02495821907708
25
 energy: 5.134033018741 xtb: 6.6.1 (8d0f1dd)
C            3.23694779324335        1.17448485326840        0.07081743696331
N            2.27314874682975        0.11546691888943        0.03747371773842
C            2.56390464087419       -1.23190354612392        0.09146647112161
N            1.37730743563717       -1.92893964138710        0.00886898474095
C            0.33612326702031       -1.05809628439133       -0.04799606597850
C            0.87965991308050        0.21862225234247       -0.01971662703389
C            0.06189320628648        1.35291059543262       -0.03492466682534
O            0.45808651143063        2.52416597212443        0.02321648341786
N           -1.35657355859329        1.01523098539820       -0.11569797398946
C           -2.17419809040526        2.20794113154648        0.06891428970041
C           -1.98761550987558       -0.21778254521686       -0.38561638570370
O           -3.14806534410529       -0.35790128378014       -0.69721237340517
N           -1.02229380501092       -1.30570180838069       -0.14732853771092
C           -1.39825211267801       -2.69456489564784        0.03482326789805
H            3.69078665591680        1.27133859460983        1.06402963150190
H            4.03645586665863        0.98328764569638       -0.65116830238538
H            2.73429739284290        2.10776622941675       -0.17430492592359
H            3.54878031360234       -1.64043260382423        0.03379315521989
H           -1.49807437863656        3.05963849011203        0.20361108038024
H           -2.79936424232946        2.39028402548064       -0.79776847163931
H           -2.78426618831106        2.10631237077226        0.96627476516239
H           -0.92471329906416       -3.10265515018493        0.93760576378710
H           -1.08427394363288       -3.30812429561313       -0.81659801602001
H           -2.47401676986470       -2.75768511797866        0.14843256604552
H            1.36653016702036       -2.93463429038920        0.02603862908495
25
 energy: 4.782825145933 xtb: 6.6.1 (8d0f1dd)
C            3.23752183521220        1.17503041163042        0.07301306363187
N            2.27488224724062        0.11514436347229        0.03951795286804
C            2.56562645158502       -1.23297277677772        0.10827831271708
N            1.37772610285341       -1.92919068402545        0.00872396018939
C            0.33832424682315       -1.05704227532801       -0.05266728221853
C            0.88144518601866        0.21948893755972       -0.02467623238834
C            0.06298325785701        1.35306905945677       -0.03813112910849
O            0.45817845959674        2.52576592249471        0.01839808307931
N           -1.35311699235148        1.01520740739038       -0.11834985613532
C           -2.17513956401549        2.20414030155058        0.07179651872461
C           -1.98284638419226       -0.21638767934440       -0.39244345669233
O           -3.14340925162159       -0.35639895497402       -0.70154445745292
N           -1.01955429942384       -1.30587477525951       -0.15728474024946
C           -1.40021692567428       -2.69156766851574        0.03648301945752
H            3.68504087023458        1.27816480234291        1.06848503045743
H            4.04182065355335        0.98074487965333       -0.64260196238343
H            2.73481093844472        2.10609785072047       -0.18009433916922
H            3.54874116789443       -1.64305785959936        0.01722473040219
H           -1.50272495913300        3.05822874284957        0.21255582674674
H           -2.79961014608498        2.38747699699925       -0.79555122987125
H           -2.78796054843786        2.09320306993416        0.96623188960577
H           -0.92019782773280       -3.09649489640102        0.93646876573169
H           -1.09732306357804       -3.31151778611510       -0.81460534694677
H           -2.47560167578930       -2.74762483310757        0.15958317610055
H            1.36281488865729       -2.93460395443475        0.02822359905119
25
 energy: 4.360291008837 xtb: 6.6.1 (8d0f1dd)
C            3.23899400740111        1.17635525115014        0.07710893964024
N            2.27792583396011        0.11494506299238        0.04446760399411
C            2.56906464649733       -1.23478808909628        0.14174866301047
N            1.37893956278527       -1.92930305727398        0.01043259966264
C            0.34228948222047       -1.05581153701170       -0.05915007002752
C            0.88512899102991        0.22020066593737       -0.03047058518237
C            0.06419387846185        1.35297418693498       -0.04279677947199
O            0.45707492854617        2.52690047746528        0.01096895593190
N           -1.34849424958955        1.01441162682114       -0.12151815738750
C           -2.17621719121423        2.19862640932719        0.07526429614108
C           -1.97718098987638       -0.21528738872750       -0.40031587393132
O           -3.13980275545505       -0.35468857057525       -0.70803488623420
N           -1.01503654698469       -1.30614685816986       -0.17224991392336
C           -1.40330428097644       -2.68729482647630        0.03797698367431
H            3.67754798323762        1.29030978973700        1.07542742457577
H            4.05057301979127        0.97696686902178       -0.62886567959481
H            2.73717569541800        2.10437637796093       -0.18908504118712
H            3.54815418227304       -1.64579001386157       -0.02055182068208
H           -1.50917204707971        3.05562805954056        0.22478761193725
H           -2.79899703885094        2.38301285001940       -0.79384138882172
H           -2.79315419010207        2.07555941554137        0.96524971189258
H           -0.91365798035353       -3.08922509152687        0.93346491781219
H           -1.11905402897187       -3.31711414873294       -0.81255111071774
H           -2.47833435800557       -2.73127656776799        0.17638562370582
H            1.35755811377421       -2.93451229105742        0.03318187133072
25
 energy: 4.035548757656 xtb: 6.6.1 (8d0f1dd)
C            3.24022512796576        1.17758705437970        0.08087260252671
N            2.27994628883100        0.11504985152838        0.04916823502823
C            2.57235007634703       -1.23597263427413        0.17125292652102
N            1.38042922143028       -1.92922456650578        0.01345474675881
C            0.34551436696260       -1.05562901314752       -0.06355412414444
C            0.88856225217091        0.21968529477154       -0.03297702053424
C            0.06448324009266        1.35254922220224       -0.04666635349550
O            0.45527481699334        2.52589807596238        0.00695582276355
N           -1.34613464376131        1.01328446448420       -0.12349471495287
C           -2.17646830103898        2.19587871675372        0.07554257229882
C           -1.97488265487108       -0.21606637107424       -0.40337730154411
O           -3.13989297047239       -0.35475367572906       -0.70135491590091
N           -1.01141008300314       -1.30642119958887       -0.18122993403664
C           -1.40530855734789       -2.68517276238458        0.03707711823823
H            3.67442299314580        1.29856781706533        1.08005253145353
H            4.05584839395022        0.97496982535691       -0.61965190956116
H            2.74018008271230        2.10420305136562       -0.19355766930366
H            3.54510429151529       -1.64436719885445       -0.05698230208634
H           -1.51262742436689        3.05411921529750        0.22907760344239
H           -2.79746576451899        2.37940635411897       -0.79557531277844
H           -2.79580444017902        2.06821162315741        0.96286238563044
H           -0.91169963488705       -3.08825762905691        0.92973892932450
H           -1.13328003298613       -3.32013733373457       -0.81309728495697
H           -2.48012331250285       -2.71991529641137        0.18371475672284
H            1.35497133575484       -2.93446428351060        0.03878250873356
25
 energy: 4.042119422878 xtb: 6.6.1 (8d0f1dd)
C            3.24085123148832        1.17840623863699        0.08307011094218
N            2.27998704744611        0.11567503869098        0.05204420838313
C            2.57519113494150       -1.23616253847924        0.18969018918195
N            1.38184749277090       -1.92889200605337        0.01789969202267
C            0.34702899428247       -1.05691837440468       -0.06353814246486
C            0.89099652053428        0.21751789137702       -0.03028479089689
C            0.06342642109937        1.35159983444289       -0.04754163692786
O            0.45284874619885        2.52188912077411        0.00871484066211
N           -1.34747560351716        1.01182888795591       -0.12243059702341
C           -2.17515304458872        2.19777391728431        0.07145341825374
C           -1.97853510643126       -0.21952149252175       -0.39711184354751
O           -3.14716448573177       -0.35739549047296       -0.68393784496921
N           -1.00990031195985       -1.30645066490251       -0.17892072163286
C           -1.40501917128151       -2.68663947593973        0.03300016711795
H            3.67819228402217        1.29951129642195        1.08017630594602
H            4.05511780817485        0.97563378434657       -0.61912942455488
H            2.74363722618475        2.10637542245088       -0.19112741147905
H            3.53804738064136       -1.63650402969022       -0.08545497096961
H           -1.51045364184204        3.05450441744211        0.22178697972956
H           -2.79466097456410        2.37836644453861       -0.80162541259644
H           -2.79391658012361        2.07715841815276        0.95939197768524
H           -0.91529854869744       -3.09637641805001        0.92580688354310
H           -1.13382025814628       -3.31904251074857       -0.81747511305436
H           -2.48019656848982       -2.71884598917126        0.17724819167336
H            1.35663667552493       -2.93446311990888        0.04532884112325
25
 energy: 4.273676987883 xtb: 6.6.1 (8d0f1dd)
C            3.23911989852956        1.17739696129397        0.08323845282671
N            2.27666833073075        0.11592551900523        0.05296837179984
C            2.57453487793174       -1.23485426795049        0.19282836808040
N            1.38109738929697       -1.92879759735753        0.02121503365596
C            0.34491564317752       -1.05820452519626       -0.06082876891350
C            0.88975418182550        0.21568288892126       -0.02687037476941
C            0.06202139202443        1.35124601442161       -0.04683839320281
O            0.45296777952577        2.51871993481398        0.01372423728721
N           -1.35043635971653        1.01209916995988       -0.12163110810908
C           -2.17331226915296        2.20237586601574        0.06718322392622
C           -1.98352460053115       -0.22211704505933       -0.38999520264284
O           -3.15248425584942       -0.35985829743239       -0.67521934869406
N           -1.01132290104909       -1.30617169408957       -0.17065728541371
C           -1.40191746424957       -2.69001082554167        0.03009933526783
H            3.68171971428552        1.29317567337648        1.07851943942113
H            4.04932799703725        0.97463853723651       -0.62424305995774
H            2.74373583139566        2.10773388429633       -0.18598320539768
H            3.53107116378702       -1.62749660162574       -0.09810131634474
H           -1.50426971945364        3.05621658292537        0.21221822601329
H           -2.79292863148537        2.38334400038874       -0.80508459741133
H           -2.78940194874775        2.09115652834637        0.95841022139040
H           -0.91704030715675       -3.10263552167493        0.92551754509391
H           -1.12111560772867       -3.31624125239646       -0.82125566160909
H           -2.47743730249967       -2.72987356549619        0.16750158252846
H            1.36047183600921       -2.93442176500903        0.05031818132198
25
 energy: 4.266402553282 xtb: 6.6.1 (8d0f1dd)
C            3.23671884762485        1.17596186066488        0.08470199157409
N            2.27318452701356        0.11565509844803        0.05647234159872
C            2.57394176355082       -1.23395249208029        0.21000611427051
N            1.37952880231853       -1.92914743183654        0.02544905303945
C            0.34319722241464       -1.05860566919042       -0.05985763132174
C            0.88849719845528        0.21459188655039       -0.02660149072080
C            0.06127574701867        1.35128626060759       -0.04771405909216
O            0.45434319621240        2.51722521992837        0.01586384181938
N           -1.35080186882484        1.01331072592707       -0.12300058350760
C           -2.17207884961200        2.20467483853149        0.06477133051494
C           -1.98463343830227       -0.22315910001599       -0.38715861787559
O           -3.15291555469365       -0.36095518882582       -0.67512455322637
N           -1.01145563448995       -1.30593232451284       -0.16735168328957
C           -1.39918533950336       -2.69144404408456        0.02918983271898
H            3.68045832749729        1.28997272243564        1.07978034406728
H            4.04549231349481        0.97031738289351       -0.62409932700883
H            2.74287049449645        2.10704988191839       -0.18451196913179
H            3.52392082310454       -1.62009106722006       -0.12875445480142
H           -1.50078596615413        3.05718835985454        0.20855835728727
H           -2.79184185739033        2.38796239388878       -0.80603237706475
H           -2.78708247547142        2.09616027875604        0.95753574150950
H           -0.91486978385974       -3.10317512947890        0.92532249687576
H           -1.11292590047607       -3.31456511712556       -0.82297995693366
H           -2.47436525997392       -2.73689336305614        0.16488153449044
H            1.36172733348614       -2.93440738080571        0.05768762035532
25
 energy: 4.267067336355 xtb: 6.6.1 (8d0f1dd)
C            3.23534880993483        1.17469470177972        0.08308580712292
N            2.27113898377053        0.11533928461297        0.05521304731010
C            2.57266542755514       -1.23343016114358        0.20017113959820
N            1.37792863792445       -1.92957892478678        0.02586689270581
C            0.34110022838852       -1.05853713931971       -0.05621897106250
C            0.88624321914222        0.21482711785814       -0.02556568418304
C            0.06093936031583        1.35164309190469       -0.04514181162477
O            0.45615160116748        2.51801681158138        0.01875507074408
N           -1.35125235232670        1.01493076348406       -0.12265925187854
C           -2.17185192840539        2.20659159268767        0.06354854160676
C           -1.98495608983551       -0.22262948947344       -0.38485036764102
O           -3.15143233069802       -0.36095203428560       -0.67612767905921
N           -1.01346713007301       -1.30551398076345       -0.15999210737861
C           -1.39746541003232       -2.69285890194861        0.02957060837008
H            3.68253937461001        1.28381542057292        1.07734397289245
H            4.04096496516446        0.97062173317685       -0.62953118290178
H            2.74039413645240        2.10669558588672       -0.18049740859767
H            3.52290023020116       -1.61932244457521       -0.12194346807628
H           -1.49930190096817        3.05913629710990        0.20449352561953
H           -2.79273329989348        2.38957214676785       -0.80598635921890
H           -2.78574888216111        2.10062983752152        0.95764076317848
H           -0.91720741622777       -3.10417806860913        0.92741494233966
H           -1.10063035236173       -3.31110203705526       -0.82342202467368
H           -2.47274779697217       -2.74478188750316        0.15757611838394
H            1.36269458326467       -2.93460071330858        0.05828978257134
25
 energy: 4.170423878863 xtb: 6.6.1 (8d0f1dd)
C            3.23552889725262        1.17457901095310        0.08281991398663
N            2.27146872798556        0.11512344309520        0.05537693462035
C            2.57316234243686       -1.23398603104303        0.20092226045090
N            1.37741204025825       -1.92979598463260        0.02642730520271
C            0.34127624773206       -1.05807970307432       -0.05544941420373
C            0.88630807620102        0.21522461936339       -0.02603813460200
C            0.06089782033283        1.35170517556899       -0.04439017031363
O            0.45628963678615        2.51869331656588        0.01834376805136
N           -1.35030521744058        1.01551055790034       -0.12288296927585
C           -2.17220622431387        2.20608589728359        0.06401579804726
C           -1.98364348676054       -0.22194588575287       -0.38576601928094
O           -3.14986686150358       -0.36033897960475       -0.67817940102589
N           -1.01363114847408       -1.30516574940277       -0.15920635686765
C           -1.39762388529588       -2.69244569365026        0.03010787781364
H            3.68314453207939        1.28363634280339        1.07688148839831
H            4.04089646801091        0.97108027971642       -0.62996702517043
H            2.73988469257603        2.10640134449848       -0.18004944560640
H            3.52274268359727       -1.62097660164389       -0.12417998930644
H           -1.50084629825827        3.05968855459959        0.20539920853822
H           -2.79345378237907        2.38829903738011       -0.80572373084345
H           -2.78644378709997        2.09844984440722        0.95754378072594
H           -0.91785475113354       -3.10329020592465        0.92817322116970
H           -1.09923793855260       -3.31015595679345       -0.82291289233634
H           -2.47309371669497       -2.74455084370167        0.15624962047595
H            1.36140960059430       -2.93471718673957        0.05951826749908
25
 energy: 4.030894101020 xtb: 6.6.1 (8d0f1dd)
C            3.23596113546594        1.17435745902530        0.08228722075193
N            2.27196456615108        0.11470379515480        0.05616931464977
C            2.57428650366792       -1.23510799477276        0.20356033358524
N            1.37621548372081       -1.93007104637583        0.02875671349624
C            0.34150276092217       -1.05721777611938       -0.05330806858438
C            0.88673524718098        0.21571079425823       -0.02617711419222
C            0.06030692560467        1.35177044835548       -0.04312747141706
O            0.45605891459195        2.51926730869792        0.01825778027299
N           -1.34877532698361        1.01670788691747       -0.12323858051691
C           -2.17273602016192        2.20574594714938        0.06462414467113
C           -1.98172102300190       -0.22102488472123       -0.38698424234644
O           -3.14743917957198       -0.35926492981562       -0.68185001071947
N           -1.01426328929209       -1.30400421837351       -0.15631550295597
C           -1.39739027824812       -2.69199866778678        0.03038861642310
H            3.68593918194888        1.28243785999361        1.07542085693552
H            4.03994235528788        0.97234862285069       -0.63232640165697
H            2.73906664711887        2.10637770442156       -0.17801011258476
H            3.52083887414914       -1.62351883065168       -0.13208980304537
H           -1.50337089515914        3.06114191263562        0.20589603468032
H           -2.79487480258642        2.38578957007622       -0.80543460122043
H           -2.78693082631690        2.09593035758205        0.95774793775396
H           -0.92048477175357       -3.10229374348330        0.93009328723228
H           -1.09397580610392       -3.30815217471539       -0.82234357169764
H           -2.47362172098422       -2.74574052056621        0.15097347691940
H            1.35898001228983       -2.93486627756478        0.06406365971308
25
 energy: 4.056539937386 xtb: 6.6.1 (8d0f1dd)
C            3.23606683733023        1.17453908594397        0.08227679549662
N            2.27207205689306        0.11481001287922        0.05619118145130
C            2.57421434683497       -1.23496831887964        0.20318296673592
N            1.37648940334874       -1.92991722529593        0.02882236912956
C            0.34158425160154       -1.05733539080319       -0.05352022032557
C            0.88700654496070        0.21554398039848       -0.02584293300690
C            0.06025421660889        1.35174753865359       -0.04366964147533
O            0.45581439616018        2.51887206366268        0.01838649246707
N           -1.34898867378494        1.01637775852636       -0.12305921996285
C           -2.17266778005411        2.20573897258985        0.06467335303861
C           -1.98205344073652       -0.22141087849986       -0.38686130617282
O           -3.14779920659831       -0.35935855970904       -0.68168580043636
N           -1.01418943969093       -1.30395137784375       -0.15664396183250
C           -1.39743210612135       -2.69196430497123        0.02998702112418
H            3.68634946414819        1.28255176056943        1.07527478259925
H            4.03991864837103        0.97263240991272       -0.63271914529645
H            2.73929055595452        2.10666988685731       -0.17795208735854
H            3.52069613912302       -1.62329749319490       -0.13104431755770
H           -1.50306925411210        3.06083374817955        0.20564327385853
H           -2.79495327337169        2.38570527848662       -0.80521815961294
H           -2.78644019993889        2.09638392141945        0.95818121829660
H           -0.92118926203371       -3.10250655864383        0.93008095377098
H           -1.09431992438244       -3.30854514750129       -0.82230663402570
H           -2.47368777757028       -2.74536269240473        0.15061385871418
H            1.35924814499654       -2.93475986815999        0.06424305652822
