25
 energy: -42.411153686607 xtb: 6.6.1 (8d0f1dd)
C            3.24182297850292        1.16866741451199        0.06061919803342
N            2.25350632837228        0.10285961035880        0.03792064476586
C            2.61074602403519       -1.16585632784761        0.04074880864238
N            1.52754469340703       -1.95782024749638        0.01013438537806
C            0.35884998665214       -1.13953266529776        0.02608986458650
C            0.88751750880784        0.18536109971226        0.02221346359375
C            0.07751946957362        1.41144823692297        0.01593021543769
O            0.66068408255772        2.50128144212590        0.02854004818536
N           -1.25150913650334        1.18154445851616       -0.03240712478636
C           -2.08060903244953        2.31835126975589        0.11663281282282
C           -2.94551071452501       -0.38456735970790       -1.11199139474815
O           -3.97456448546297       -0.03536574000750       -0.80177545796820
N           -0.86699055788172       -1.47034786264737        0.06319190705383
C           -1.31661310051361       -2.80650013284616        0.08588340149311
H            3.69654298277540        1.25507235896568        1.05047315806923
H            4.03794004570246        0.96255378070124       -0.65795470773045
H            2.76557678399438        2.12124352336319       -0.17251810685466
H            3.62256729677827       -1.51368948341723       -0.00003490498283
H           -1.45110470827632        3.19113164002131        0.23651762542010
H           -2.71452304046365        2.47626453893169       -0.75876921775149
H           -2.74057664262452        2.19001457797298        0.97875608904471
H           -0.85404006172655       -3.28364831769198        0.95187362214608
H           -1.04152805317751       -3.33281634723600       -0.82995086947341
H           -2.40446315673625       -2.83728213773581        0.18885809994051
H            1.58255724681497       -2.95855439260310        0.05821150506599
