25
 energy: 0.000000000000 xtb: 6.6.1 (8d0f1dd)
C            3.23720163006194        1.16630919979326        0.08434469647475
N            2.29877817382611        0.07527477071623        0.03981603040599
C            2.58028210190900       -1.21425402444508        0.03006176031096
N            1.43813958087363       -1.93419271955128        0.00098261760884
C            0.39035688448383       -1.05887472636071       -0.00790371836672
C            0.93510056364412        0.21347819449412        0.01709077491437
C            0.09450143893243        1.40504303904423       -0.00410947031874
O            0.49712751527797        2.54126714362870       -0.00342325688240
N           -1.25076640035757        1.06271879480407       -0.03085478223738
C           -2.21907211982101        2.15522099834493       -0.05001256985998
C           -1.81739487048744       -0.20012725993278       -0.04692818574614
O           -2.99983886758376       -0.37846417018721       -0.07008878229737
N           -0.92618586207120       -1.30210215599479       -0.03682761578324
C           -1.46982264913417       -2.64643102187190       -0.06029820460571
H            3.71247264356769        1.21471455160235        1.06488849150277
H            4.00791497605742        1.03430808813993       -0.67357694370751
H            2.69910007168542        2.09770118228144       -0.09130154882931
H            3.56654120610678       -1.63682992603973        0.04233140067262
H           -1.67107961066214        3.09322851271934       -0.02552706933167
H           -2.82428953597071        2.09428624779827       -0.95318082946668
H           -2.87644029173232        2.07745725625962        0.81450067533302
H           -1.17061996399332       -3.19584890659852        0.83242232437030
H           -1.14560257411436       -3.17511610292205       -0.95688275822323
H           -2.55549792440841       -2.55659984320617       -0.07459039797972
H            1.38130855184625       -2.94313852034425       -0.01389874181052
25
 energy: -2.341949855588 xtb: 6.6.1 (8d0f1dd)
C            3.24747924725887        1.17890386465838        0.07906187978160
N            2.30503503746548        0.09942052943163        0.03807161987749
C            2.60160424092682       -1.22452614913743        0.03093523511859
N            1.43039368939413       -1.93653453071673        0.01134714758463
C            0.38210606491014       -1.05944745582367       -0.00053742302128
C            0.92350793247748        0.21657219893218        0.02001046591326
C            0.09316935692682        1.38311144573545        0.00403248345584
O            0.50771103056195        2.54491306805057        0.01030207452243
N           -1.28182278011547        1.03977803846586       -0.04219667753108
C           -2.20156265970472        2.17065683300250       -0.02561318839406
C           -1.90209058232601       -0.21476469282791       -0.13929771691684
O           -3.11023015888324       -0.36818556871310       -0.19426991779288
N           -0.96259682409691       -1.30625539462130       -0.04293251672788
C           -1.45668104557719       -2.66458811019834       -0.03782237263939
H            3.72673879238863        1.23160881668242        1.06054930749886
H            4.01949990390314        1.03548978070727       -0.67945898079548
H            2.70935565195050        2.10623692944703       -0.10528750495854
H            3.58592028428710       -1.64096403044693        0.03361400610358
H           -1.63257429079689        3.10045358977939        0.01586545410854
H           -2.80389254525150        2.13859469356618       -0.93045769359848
H           -2.85359679506434        2.09332150722017        0.84272388807912
H           -1.13291397205306       -3.20572778094696        0.85573207169446
H           -1.12329668571339       -3.19811309838489       -0.93026654646215
H           -2.54075401453751       -2.58957902238401       -0.04147693417943
H            1.38170578960538       -2.94134685930575       -0.00559426457362
25
 energy: 10.937970017247 xtb: 6.6.1 (8d0f1dd)
C            3.25880931546162        1.18901867727986        0.06950000627757
N            2.30421456216113        0.12469137890733        0.03527571548562
C            2.61506827494505       -1.23011189807940        0.03371289635085
N            1.41646433107388       -1.93191039638970        0.02497223426956
C            0.36406576492161       -1.05979645955868        0.01280901650195
C            0.90524024766237        0.21752359726242        0.02717486397989
C            0.08660007246744        1.34885139525716        0.01427153815809
O            0.50850908915083        2.52660647225813        0.02790707134067
N           -1.32789470166513        1.00878524201373       -0.05534697520799
C           -2.17407259690742        2.19911205389744        0.01326615679086
C           -2.02472885985284       -0.23656910992036       -0.27268487831534
O           -3.24412590023605       -0.35046035517742       -0.42016588531076
N           -1.01305827287471       -1.30828018324516       -0.04981102862209
C           -1.43186564837680       -2.69202351348615       -0.00294566201075
H            3.74424262574562        1.25477892290301        1.05063468125971
H            4.03577234643109        1.03149396924732       -0.68579790002856
H            2.73023345558895        2.11794758744549       -0.12860954458434
H            3.60075489481488       -1.63373444242436        0.02092917862223
H           -1.56969176739938        3.11184787794122        0.08252341323791
H           -2.77879859731763        2.22339214323751       -0.88980617653328
H           -2.81438501094202        2.12687264561412        0.89092314992042
H           -1.06402572412033       -3.21641082815669        0.89086739992724
H           -1.09232200187479       -3.24014606601333       -0.88778024915995
H           -2.51625127274539       -2.65660761320990        0.01844780079848
H            1.39346004182428       -2.93584249543165        0.00676707299933
25
 energy: 29.199801606767 xtb: 6.6.1 (8d0f1dd)
C            3.26364983084677        1.19084452993380        0.06426339802872
N            2.29527439479182        0.13574669345125        0.03599510964651
C            2.61016208072957       -1.22923138763105        0.04203316516085
N            1.40401894816695       -1.92768835617378        0.03130515186199
C            0.34305035609834       -1.06358245464463        0.00832496652022
C            0.88928098584796        0.21309743053893        0.02687547517119
C            0.06943721333504        1.33057866238735        0.00760781967756
O            0.49468546465249        2.50971941009883        0.03852812383765
N           -1.37204122486043        0.99061353299957       -0.07892121893533
C           -2.15236988631151        2.22941278667709        0.05115012442342
C           -2.12289618093757       -0.25146200655908       -0.39476741640474
O           -3.33459300068994       -0.33453399390989       -0.61779925612784
N           -1.05386732504430       -1.31118630558607       -0.07256464783293
C           -1.40535827033744       -2.71932170513227        0.02779084803145
H            3.74984477132822        1.27136021073806        1.04566281147730
H            4.04817068360744        1.01762963505061       -0.68233823623122
H            2.75342823467669        2.12711357592174       -0.15125032637393
H            3.60185345785949       -1.62018459610804        0.01750256739087
H           -1.50527723042187        3.11670493241302        0.14932364754214
H           -2.76201947399490        2.32475674884012       -0.84569938659288
H           -2.77477579541048        2.16378478245274        0.94241531696377
H           -0.98597963490199       -3.21216020442617        0.92442580038769
H           -1.06287130445644       -3.28662940783393       -0.84615062949941
H           -2.49057798492340       -2.74272317601258        0.08368279404930
H            1.41198555828576       -2.93363073531374        0.01963789397496
25
 energy: 38.972586890333 xtb: 6.6.1 (8d0f1dd)
C            3.26078427413444        1.18626696236201        0.06776277214701
N            2.28288205588458        0.13512738124224        0.03964936710717
C            2.59565922151859       -1.22390539889366        0.05279959035259
N            1.39693489585254       -1.92632801739453        0.02501749933779
C            0.32713352063367       -1.06871220131622       -0.01383101819677
C            0.87853349666048        0.20651772700724        0.01621788702510
C            0.05311374457282        1.32806830007657       -0.01538085661197
O            0.48490057631262        2.49759037657697        0.03038165754440
N           -1.40073470621555        0.98923656407639       -0.10406681356533
C           -2.14182272304426        2.24910371154522        0.07484671283766
C           -2.17771324721119       -0.25538711516304       -0.46192259666333
O           -3.37170121155232       -0.32100122506324       -0.71364024593504
N           -1.07480201717024       -1.31607108554959       -0.10134928120856
C           -1.38381217006253       -2.73619993526675        0.04371600290824
H            3.73893769569300        1.27604656342363        1.05223927040585
H            4.05384779269795        0.99820589616120       -0.66683996781667
H            2.76840651628631        2.12914662656894       -0.16459902042807
H            3.59339181189538       -1.60556673065364        0.02438773062574
H           -1.46603930527583        3.11421657759576        0.18958183725567
H           -2.75600134324601        2.40187364782977       -0.80967645587114
H           -2.74575400978400        2.18676099204920        0.97908331485700
H           -0.92443943536229       -3.19454655312580        0.94233146198509
H           -1.04384898409990       -3.31955476052149       -0.82122319145955
H           -2.46532153610771       -2.80793881919238        0.13506658708371
H            1.42967975492571       -2.93392088220289        0.02648165243075
25
 energy: 39.784742290024 xtb: 6.6.1 (8d0f1dd)
C            3.25456774745671        1.18106387866140        0.07169620174136
N            2.27336811517627        0.13001171107107        0.04287958391469
C            2.58287598437395       -1.21769695825355        0.05973530620074
N            1.39522794532829       -1.92685553394878        0.01631760770836
C            0.32030688127943       -1.07231388141930       -0.02788781002485
C            0.87372474856030        0.20168155587938        0.00889220958449
C            0.04674336378159        1.33157517724791       -0.02924499261430
O            0.48621505445316        2.49023701041581        0.01644465155301
N           -1.40763754747066        0.99669516222960       -0.11235441801577
C           -2.13990072661429        2.25297818401207        0.08176093053876
C           -2.19090889089604       -0.25179911325629       -0.46655555416122
O           -3.37169358486637       -0.31080417830749       -0.74662643504426
N           -1.07599041994532       -1.32152338396196       -0.11221175423526
C           -1.37346175030141       -2.73963274671660        0.04754757928188
H            3.72393732839167        1.27409268413084        1.05930268689186
H            4.05240189968134        0.98433638889781       -0.65446314647514
H            2.77116515044252        2.12591922623721       -0.17000214162609
H            3.58398878144510       -1.59551076237530        0.02648111089696
H           -1.45723854241443        3.10791732597199        0.19888994092942
H           -2.75529611721225        2.43078963802084       -0.79104515357279
H           -2.73510990096019        2.19046627650268        0.99145972563813
H           -0.89883999286398       -3.17972244582751        0.94307251479744
H           -1.03826915657823       -3.32877856336089       -0.81439924143705
H           -2.44787535960045       -2.82968198514702        0.16000202423280
H            1.43991365728956       -2.93441606453203        0.02734246944416
25
 energy: 38.128551442134 xtb: 6.6.1 (8d0f1dd)
C            3.24976408637472        1.17859688102130        0.07339079782393
N            2.26837968551172        0.12670553803316        0.04487201671478
C            2.57647540673727       -1.21365046476211        0.06534970576360
N            1.39513835229278       -1.92777530014064        0.01150445521741
C            0.31841752868974       -1.07349945101613       -0.03425322998961
C            0.87151797003463        0.19974112070193        0.00440487062878
C            0.04514820084061        1.33337064851283       -0.03504775406044
O            0.48843673836140        2.48783654597414        0.01160930459032
N           -1.40496821696177        1.00237386509409       -0.11672024619282
C           -2.14002936685027        2.25166284098342        0.08221214943566
C           -2.18757977606910       -0.24738124265051       -0.46058257526051
O           -3.36074570244912       -0.30499004209443       -0.75164819035313
N           -1.07015721403683       -1.32622151932446       -0.11677231659988
C           -1.37063356184600       -2.73936107226082        0.04869147146053
H            3.71371311016590        1.27271146211284        1.06293599588842
H            4.04945618530742        0.97783469820649       -0.64839373337795
H            2.76834682878501        2.12244778917719       -0.17242115309979
H            3.57827306538027       -1.59162482445430        0.02468437098934
H           -1.45629676456973        3.10392510077149        0.20174404216379
H           -2.75682482382552        2.44049322848210       -0.78531083698930
H           -2.73482995210094        2.18618741220132        0.99191819942859
H           -0.88992611050148       -3.17240463414519        0.94091532909447
H           -1.04037618227742       -3.33080295892406       -0.81337507943583
H           -2.44107217475598       -2.83268827113449        0.16952302669926
H            1.44258735569895       -2.93445874819325        0.02780327560771
25
 energy: 37.533132362506 xtb: 6.6.1 (8d0f1dd)
C            3.24826203856994        1.17838814171693        0.07309189699659
N            2.26711893745031        0.12619454981450        0.04572378558535
C            2.57552214055977       -1.21253318533375        0.06979871131138
N            1.39501639385086       -1.92828547720070        0.01050425681895
C            0.31804336200526       -1.07333869525313       -0.03491794768870
C            0.87064139625280        0.19960897459271        0.00329918065864
C            0.04446017415649        1.33293121967990       -0.03454002662545
O            0.48867752628226        2.48778405599010        0.01295185333475
N           -1.40238993346595        1.00421661144751       -0.11795889254808
C           -2.13983515892492        2.25114789588345        0.08240802917079
C           -2.18518865561570       -0.24439603669850       -0.45835652743400
O           -3.35649183393073       -0.30174373994303       -0.75832550859661
N           -1.06637188097553       -1.32852815018348       -0.11882558095613
C           -1.37015377701245       -2.73963735921880        0.04975851751710
H            3.71084065370290        1.27325203319735        1.06309274852536
H            4.04829109366914        0.97607341759950       -0.64741569226410
H            2.76651273341529        2.12134210206499       -0.17409135878977
H            3.57676500991232       -1.59168001106952        0.02080864193192
H           -1.45643769004795        3.10369941386349        0.20384265616947
H           -2.75664174714453        2.44215768828592       -0.78432074577430
H           -2.73655096709278        2.18329667345040        0.99087804546374
H           -0.88606743667764       -3.17153862967066        0.94016799420780
H           -1.04357523480219       -3.33267070407830       -0.81308907668814
H           -2.44020081717902       -2.83221063356270        0.17382033452051
H            1.44196834097832       -2.93450155320228        0.02872860130028
25
 energy: 37.090777344230 xtb: 6.6.1 (8d0f1dd)
C            3.24743564966632        1.17874543831722        0.07270282788185
N            2.26658992075911        0.12622445632178        0.04682335845748
C            2.57622212473566       -1.21192853959754        0.07747938141364
N            1.39514264224838       -1.92887479476140        0.01026312056109
C            0.31809123166478       -1.07303388896496       -0.03550706234104
C            0.87012519553830        0.19960906549779        0.00174804574318
C            0.04271993556114        1.33130166533154       -0.03381163764817
O            0.48736394788553        2.48758212828058        0.01626406533031
N           -1.39989154658722        1.00547672134399       -0.12038620230434
C           -2.13974639374846        2.25126133443318        0.08294585547052
C           -2.18340467862800       -0.24026186267162       -0.46044787258954
O           -3.35250982164763       -0.29839177531398       -0.76176057734392
N           -1.06162698548103       -1.33129278188514       -0.12322445723192
C           -1.36987157411703       -2.74050687807955        0.05105168082703
H            3.70947929113439        1.27479643546196        1.06280730376733
H            4.04770134448667        0.97518897082520       -0.64687553469593
H            2.76496337925356        2.12083598166339       -0.17569314053440
H            3.57622830792525       -1.59273885182107        0.01409550149033
H           -1.45699881062407        3.10464140103304        0.20694824224813
H           -2.75596984606921        2.44285320758453       -0.78422290711166
H           -2.73884785623135        2.18022671468948        0.98987932190080
H           -0.88339611337636       -3.17230282921423        0.93984444901675
H           -1.04818514939768       -3.33630339546697       -0.81242662717919
H           -2.43997868033107       -2.82932103373387        0.17751095061403
H            1.44057915331630       -2.93475828710148        0.03102581040498
25
 energy: 37.304525369074 xtb: 6.6.1 (8d0f1dd)
C            3.24771274740325        1.17927839345614        0.07222868895596
N            2.26703424782024        0.12658069162776        0.04756127903199
C            2.57806502354855       -1.21210305874242        0.08422799444390
N            1.39577248356107       -1.92921816472899        0.01102292903942
C            0.31866022410503       -1.07319085735545       -0.03446516034754
C            0.87060100733511        0.19938241450744        0.00183094989138
C            0.04115885979471        1.32970069192067       -0.03191636343019
O            0.48591512492987        2.48684729535127        0.01847354348469
N           -1.39928794031095        1.00542669464445       -0.12000037519651
C           -2.13979190834441        2.25167650521906        0.08318835653287
C           -2.18441584690100       -0.23713662414896       -0.46160231077910
O           -3.35372027213091       -0.29624837130723       -0.76573699190786
N           -1.05903424298614       -1.33285505456210       -0.12530738001019
C           -1.36982096336593       -2.74119947879505        0.05132655863230
H            3.71069472874286        1.27601320468447        1.06185017292169
H            4.04764951503063        0.97565564757403       -0.64775076166362
H            2.76474105576337        2.12119660597630       -0.17615575547491
H            3.57700571954586       -1.59340171460575        0.00677369343968
H           -1.45758534325055        3.10549510782185        0.20773549476901
H           -2.75523538330023        2.44144879164162       -0.78497952659112
H           -2.73965816929853        2.17972319387618        0.98957180441665
H           -0.88329345012205       -3.17412521699450        0.93950850426646
H           -1.05059784770589       -3.33834850271181       -0.81225161621497
H           -2.44048187237781       -2.82643982686351        0.17864811779611
H            1.44012717045015       -2.93512976531357        0.03325205014124
25
 energy: 37.805926773916 xtb: 6.6.1 (8d0f1dd)
C            3.24816696475404        1.17969778531594        0.07243443160375
N            2.26755025570239        0.12686105441458        0.04839142391865
C            2.58039009662877       -1.21236461680841        0.09313364668069
N            1.39702065824662       -1.92958629293686        0.01197975067655
C            0.31967236123933       -1.07394683343682       -0.03429961339679
C            0.87165093639564        0.19864959790112        0.00148198345299
C            0.03933007176520        1.32793133867819       -0.03140409280086
O            0.48448699988706        2.48520657898223        0.01970062365951
N           -1.39992694682263        1.00484169180748       -0.11958796929121
C           -2.13993424770077        2.25264662246355        0.08329796285812
C           -2.18753122457745       -0.23354888645097       -0.46426506821183
O           -3.35735619721009       -0.29445715791572       -0.76463478703043
N           -1.05669240425046       -1.33435660518274       -0.12779884808939
C           -1.36955795721001       -2.74206094334651        0.05093245359625
H            3.71251331074660        1.27657423692942        1.06141222725347
H            4.04769107146155        0.97654326756057       -0.64843668758838
H            2.76501195028505        2.12182601874655       -0.17544148950102
H            3.57815875201203       -1.59302195477004       -0.00266782728461
H           -1.45788731445833        3.10648301754084        0.20736164025547
H           -2.75498701737521        2.44012068091310       -0.78594726723630
H           -2.73935117435675        2.18089515540733        0.98982749308799
H           -0.88421745422390       -3.17610266099976        0.93949456869569
H           -1.05173778778942       -3.34034074092544       -0.81216809812668
H           -2.44094282694959       -2.82381970416338        0.17810397185598
H            1.44069379173660       -2.93564204755239        0.03613346710975
25
 energy: 38.442713296452 xtb: 6.6.1 (8d0f1dd)
C            3.24832459852482        1.17968603995552        0.07304907410428
N            2.26760057743027        0.12684325273156        0.04890374959373
C            2.58188393710250       -1.21238402934948        0.10103622116919
N            1.39842482716651       -1.92991522423754        0.01275666733214
C            0.32071710539079       -1.07511647364844       -0.03474046565399
C            0.87264919714037        0.19770408114446        0.00110443898481
C            0.03845510721819        1.32700209006741       -0.03194388547844
O            0.48425265508434        2.48353721589079        0.01916443748624
N           -1.40132988630627        1.00411396317729       -0.11853716881392
C           -2.13992283803486        2.25359239860513        0.08312267348422
C           -2.19149994767957       -0.23069722321293       -0.46542386439953
O           -3.36263288248443       -0.29336344973053       -0.76189899938950
N           -1.05526379833596       -1.33532528259377       -0.12823505787007
C           -1.36895773481584       -2.74270215923645        0.05014346067120
H            3.71375516799922        1.27587276084896        1.06153527258395
H            4.04742821360513        0.97715881306766       -0.64881813697751
H            2.76540995617097        2.12225201883124       -0.17400709870803
H            3.57881333902773       -1.59120273315761       -0.01144758399051
H           -1.45766189489319        3.10712430793455        0.20560526187302
H           -2.75521184610817        2.43925161237086       -0.78645631111592
H           -2.73808508963018        2.18318921955940        0.99033497501357
H           -0.88583996493580       -3.17763327943210        0.93971820804792
H           -1.05066589315316       -3.34105886319354       -0.81232166710664
H           -2.44074122403889       -2.82284729973851        0.17606993869255
H            1.44231298649177       -2.93605315448203        0.03831975661455
25
 energy: 38.824732836669 xtb: 6.6.1 (8d0f1dd)
C            3.24807600165072        1.17931064529900        0.07373855331585
N            2.26714576762463        0.12655336424053        0.04897749843372
C            2.58202745544340       -1.21208700505622        0.10582855182974
N            1.39927469493563       -1.93014022830120        0.01305127176105
C            0.32128398210625       -1.07600706131447       -0.03598407753138
C            0.87296313677819        0.19710289276925        0.00034687034267
C            0.03873191112456        1.32708324631533       -0.03336396373126
O            0.48491589678129        2.48280185845182        0.01781919120026
N           -1.40245073873090        1.00379375726402       -0.11827849186867
C           -2.13976038224605        2.25410672254381        0.08286433635711
C           -2.19412596254199       -0.22915394400380       -0.46568469682971
O           -3.36616719259014       -0.29303668820252       -0.75833145216315
N           -1.05452354342739       -1.33576473503969       -0.12723292247644
C           -1.36828255236016       -2.74303185702779        0.04961712191301
H            3.71363416576239        1.27457918412350        1.06217110829639
H            4.04704986713328        0.97701657940919       -0.64848976610775
H            2.76557060626723        2.12216564485971       -0.17286264367846
H            3.57851901431414       -1.58911412658486       -0.01648953821184
H           -1.45716343865392        3.10741106473784        0.20418523730764
H           -2.75564167046225        2.43960672115667       -0.78633074641255
H           -2.73702324245779        2.18472921755678        0.99062454734755
H           -0.88675467862503       -3.17831837240219        0.94006356865698
H           -1.04873142554867       -3.34083767555870       -0.81258783156399
H           -2.44011964353087       -2.82354151196295        0.17418111287153
H            1.44376663918974       -2.93619909110120        0.03920105708904
25
 energy: 38.977128727393 xtb: 6.6.1 (8d0f1dd)
C            3.24771720979545        1.17882747137632        0.07411105701455
N            2.26658486176109        0.12613935791466        0.04871351594043
C            2.58137757791220       -1.21164485236631        0.10843093654910
N            1.39955500674242       -1.93025785307621        0.01333098471555
C            0.32139763074657       -1.07647280206782       -0.03729784188505
C            0.87269306786987        0.19697052756797       -0.00045678420020
C            0.03984094049762        1.32777991588194       -0.03466168141549
O            0.48581224411528        2.48309943337912        0.01645892515535
N           -1.40311456780561        1.00385223016584       -0.11870330431658
C           -2.13954934632561        2.25410846829620        0.08264625014534
C           -2.19532011083024       -0.22847076486796       -0.46522238927915
O           -3.36784146239632       -0.29316371679419       -0.75613241059423
N           -1.05406676563747       -1.33592647540851       -0.12499662225306
C           -1.36768099168106       -2.74317376426553        0.04949699061014
H            3.71274813788992        1.27343319852928        1.06277473699233
H            4.04675874067003        0.97632961019795       -0.64790585215921
H            2.76556551196190        2.12172549857533       -0.17249340477234
H            3.57772061885486       -1.58751506814100       -0.01880672264285
H           -1.45671018806905        3.10738508207612        0.20367254337762
H           -2.75590739806562        2.44074042649014       -0.78583015227119
H           -2.73666879939959        2.18504719502746        0.99056044398408
H           -0.88708684025993       -3.17879607258763        0.94028423391448
H           -1.04686961838106       -3.34007750536926       -0.81297558678394
H           -2.43931567352212       -2.82476209742971        0.17289537652531
H            1.44457488149272       -2.93614884093231        0.03914065379630
25
 energy: 39.130142080482 xtb: 6.6.1 (8d0f1dd)
C            3.24735166436082        1.17834481947370        0.07448839241588
N            2.26601790717787        0.12572690446588        0.04845668222067
C            2.58072402772167       -1.21120343649903        0.11096678420321
N            1.39983591595752       -1.93037766569144        0.01358245875111
C            0.32151278365468       -1.07693814723966       -0.03860405190022
C            0.87242749830794        0.19683311182767       -0.00125034927275
C            0.04093282310332        1.32847560615582       -0.03595296239544
O            0.48672012729649        2.48338445528483        0.01510382062050
N           -1.40376010781924        1.00391479239152       -0.11910587148974
C           -2.13933932707482        2.25410891067952        0.08242397035636
C           -2.19648950108948       -0.22780603632404       -0.46474151108635
O           -3.36949056828547       -0.29328746664971       -0.75391726139993
N           -1.05361884821632       -1.33608354581388       -0.12279731080867
C           -1.36708620130991       -2.74330502764645        0.04937294873510
H            3.71185971868320        1.27228195933664        1.06338154453880
H            4.04645805835027        0.97564878474666       -0.64732340632593
H            2.76555284924374        2.12128713699286       -0.17211235738530
H            3.57692496824230       -1.58591524806713       -0.02107652101970
H           -1.45626565902584        3.10735968294525        0.20313759187775
H           -2.75617879862416        2.44184405911037       -0.78533553323327
H           -2.73630739035570        2.18536998538939        0.99049456523327
H           -0.88742586110713       -3.17924071780278        0.94050596885673
H           -1.04501673092880       -3.33932090724482       -0.81335394513607
H           -2.43851352725014       -2.82597314592467        0.17161315812293
H            1.44538884692346       -2.93610026172464        0.03907709166841
25
 energy: 38.951160176225 xtb: 6.6.1 (8d0f1dd)
C            3.24767702632831        1.17869131723990        0.07409224560629
N            2.26652180312345        0.12599458802666        0.04849994452856
C            2.58109951633069       -1.21152038701577        0.10905282023209
N            1.39948431438698       -1.93023929745569        0.01363229085262
C            0.32133599426901       -1.07645157420132       -0.03768098327964
C            0.87248613082045        0.19710773389111       -0.00075578736206
C            0.04046996522457        1.32810134555028       -0.03501095343809
O            0.48595971496631        2.48353776882287        0.01606862380244
N           -1.40325199102768        1.00394473067064       -0.11916287779002
C           -2.13952636105923        2.25395287493842        0.08260118278063
C           -2.19529629482774       -0.22834639843573       -0.46495851269426
O           -3.36780639023791       -0.29335350564346       -0.75579148635157
N           -1.05389709883638       -1.33591975330633       -0.12390266184615
C           -1.36755201043636       -2.74321626370305        0.04956225775916
H            3.71237521508186        1.27326476684297        1.06289708525931
H            4.04681836935983        0.97602651179992       -0.64767332000526
H            2.76555881481511        2.12151064964149       -0.17267569373313
H            3.57739928693066       -1.58735439276276       -0.01902118121750
H           -1.45665384488680        3.10728631149652        0.20392063387797
H           -2.75592435907961        2.44133022710433       -0.78563221904525
H           -2.73690158681296        2.18471393675360        0.99040419130413
H           -0.88701012483780       -3.17913817155500        0.94024050371718
H           -1.04650655054855       -3.33970572400144       -0.81323300933295
H           -2.43914368599000       -2.82511706719859        0.17267783209942
H            1.44449881488008       -2.93607162532772        0.03888297042341
25
 energy: 38.796023025107 xtb: 6.6.1 (8d0f1dd)
C            3.24804369810895        1.17902953095691        0.07369389922889
N            2.26711800709261        0.12621162711347        0.04842817825390
C            2.58150360346141       -1.21182884441338        0.10774577616388
N            1.39918284223293       -1.93006651812154        0.01400363995904
C            0.32119330478422       -1.07602223540947       -0.03681758542398
C            0.87257665538489        0.19740104086715       -0.00032548422174
C            0.04024498832518        1.32776117987568       -0.03417571514135
O            0.48510885857707        2.48377539321871        0.01683888636107
N           -1.40300704594414        1.00390106785238       -0.11933320930341
C           -2.13974050617125        2.25376768799163        0.08277906376602
C           -2.19432772226528       -0.22868536751339       -0.46515166095472
O           -3.36633350831898       -0.29350961915042       -0.75761318690420
N           -1.05411403156300       -1.33577451601451       -0.12460728309698
C           -1.36796833963181       -2.74318484476896        0.04971444880321
H            3.71289387739502        1.27425528960996        1.06242443339399
H            4.04725046761113        0.97642214685590       -0.64799797752131
H            2.76561558805677        2.12171897794297       -0.17327095791990
H            3.57780300524082       -1.58878382371370       -0.01746202838192
H           -1.45696820482374        3.10708476998010        0.20476764087162
H           -2.75564608028628        2.44103601136973       -0.78587807739441
H           -2.73752652247117        2.18407010913378        0.99032002567256
H           -0.88672251360085       -3.17925291549763        0.93994499168575
H           -1.04789811966938       -3.34001657050029       -0.81322255484642
H           -2.43970928101200       -2.82424571138864        0.17358069945472
H            1.44364164742315       -2.93603526410455        0.03864793364304
