25
 energy: 15.067192217892 xtb: 6.6.1 (8d0f1dd)
C            3.21690436754473        1.33490810611286        0.12875921367407
N            2.40222059995936        0.13979192689994       -0.02471398712234
C            2.74603112167266       -1.19544803079316        0.06881205784026
N            1.59818924644092       -1.95770545416463        0.04856578578506
C            0.48493546169806       -1.18574589247730       -0.04444300493051
C            0.99222576405693        0.14314100770259       -0.08717141509159
C            0.19775424652866        1.29735613705405       -0.11713160398755
O            0.52042099369692        2.49088279612912       -0.16301093921669
N           -1.17189264959380        0.94257934939390       -0.07420166118476
C           -2.12051093256001        2.03680708310405       -0.04909882429024
C           -1.71311007780517       -0.28912549609490       -0.05219860922149
O           -2.93083610615022       -0.36169110412420       -0.01635055007073
N           -0.90890391539380       -1.46685672752723       -0.06253522645977
C           -1.86207618716816       -2.63481107728666       -0.08072042572030
H            3.91346166078803        1.28152315756658        0.97369495949067
H            3.82583781781730        1.55385656783165       -0.76182510693809
H            2.54612429412823        2.18639846946268        0.29715331434249
H            3.73727472865837       -1.58914544152705        0.08508396347535
H           -1.53235666264968        2.95108259179217       -0.05129060587242
H           -2.75804919138209        1.97381183236102       -0.92641808330984
H           -2.72539740631114        1.97624080336797        0.85223725530248
H           -1.86790287779614       -3.26363492858460        0.81092260250512
H           -1.84229490547675       -3.25880327501696       -0.97376179157176
H           -2.83072041721267       -2.13177817458933       -0.08703363416000
H            1.62980909997802       -2.96230804011326        0.09752105705922
