25
 energy: 53.512368210009 xtb: 6.6.1 (8d0f1dd)
C            3.20439339007544        1.48493290820487        0.18572845731795
N            2.55099186095592        0.20821861171449        0.00188442284786
C            2.96639364546999       -1.04655018136619        0.14478350124200
N            1.90166940043665       -1.89771135445346        0.08953670501523
C            0.73373377748418       -1.16560470096930       -0.08258961059867
C            1.19961944992714        0.15440317712152       -0.17840624194262
C            0.31766355563105        1.27518103681997       -0.26406163430062
O            0.65584694394172        2.44833594711523       -0.36655829823033
N           -0.97596393383567        0.87309606929172       -0.14852353756140
C           -1.98540792826029        1.90698999659164       -0.04759521533925
C           -1.41755683293129       -0.45636597624391        0.03047259361042
O           -2.59802364519311       -0.50336382153200        0.30074219602442
N           -0.54523109205588       -1.51038543266869       -0.05227067854560
C           -3.09065899944240       -3.01732870132901       -0.18524898415554
H            4.10898871263519        1.37833788201415        0.77436410132080
H            3.46761140651704        1.94705268450291       -0.77325411076966
H            2.50351715004339        2.15057066310166        0.70208139867482
H            3.98705422659482       -1.36184900822659        0.20536420789550
H           -1.43585732224143        2.84384194023329       -0.08932747252644
H           -2.69094429443697        1.79880340108349       -0.86628482565863
H           -2.52564857783110        1.80749934158996        0.89348167061468
H           -2.93515150836046       -3.47529021306592        0.75749782511547
H           -2.88387286817518       -3.49961236476925       -1.10359157155555
H           -3.38772202615635       -1.99888004356026       -0.19298146678289
H            1.96842023868789       -2.90083505511391        0.18166890333674
