25
 energy: 23.434633954182 xtb: 6.6.1 (8d0f1dd)
C            3.20024810081652        1.34565974441462        0.12665169648263
N            2.40808742440236        0.13854137125812       -0.05082890255205
C            2.76002174797984       -1.18785152094763        0.07444143007426
N            1.62344610902505       -1.96427408223684        0.05489884895616
C            0.49324280298425       -1.21312642122017       -0.06347047787661
C            0.99780707798262        0.12249654635868       -0.12073951212443
C            0.21728178707705        1.28375523882526       -0.14019715119536
O            0.54642842134131        2.47721219832693       -0.18605672005216
N           -1.14834326082474        0.93030607422735       -0.08722511616185
C           -2.09712664921161        2.02308033578497       -0.04855024797831
C           -1.69346525310725       -0.29802834717729       -0.04045407536988
O           -2.91191455387151       -0.34001630965009        0.04292234426019
N           -0.91737891638922       -1.49580627367545       -0.08114479094468
C           -1.94122301454799       -2.63284340684214       -0.09670669915764
H            3.93180638133222        1.26698200317250        0.93691609465320
H            3.76107725495812        1.64230205719672       -0.77521164963116
H            2.51341206401661        2.16233580849362        0.36071264691325
H            3.75869015379126       -1.56701224897009        0.09798730723512
H           -1.50697351543130        2.93488346558729       -0.05555677073499
H           -2.74359314335531        1.95308360887045       -0.91908276429924
H           -2.69392408031912        1.95365488516524        0.85812385557522
H           -2.00147620706653       -3.25986900581147        0.79574790147820
H           -1.97527114767338       -3.26076187212315       -0.98575722210364
H           -2.87565120556027       -2.06758725860890       -0.09858814980307
H            1.68174347942024       -2.96773030735521        0.10830926738910
