25
 energy: 50.151331021426 xtb: 6.6.1 (8d0f1dd)
C            3.21668605232857        1.54723994368256        0.22246351057986
N            2.59589052700626        0.26334860327167        0.02168556434549
C            3.04172992175625       -0.97572861138757        0.16836585837675
N            2.00389150705511       -1.85560408002176        0.10656585194141
C            0.82217511957368       -1.14549965456267       -0.08329393461260
C            1.25501195546106        0.18105057175731       -0.18214448639867
C            0.34399591054986        1.27241148694718       -0.31947892920603
O            0.67128262916582        2.44009427570494       -0.48285589357143
N           -0.94214834759178        0.84941683950860       -0.17399119306556
C           -1.96748049187798        1.86663689982144       -0.04092899369226
C           -1.34772593863068       -0.50086778542883        0.03282493119723
O           -2.51407883771728       -0.60717407076718        0.33058829626972
N           -0.44287997813127       -1.51925005168140       -0.05759222784251
C           -3.36756394656352       -3.08928885883621       -0.20519745344334
H            4.19886435505934        1.43597214033695        0.66471143828225
H            3.29351611907470        2.08968029050249       -0.72065581068129
H            2.56310404865535        2.12892049516790        0.88606339642556
H            4.07162375149280       -1.25619458014136        0.22579333769986
H           -1.47197606895922        2.83533589249260       -0.09659214325996
H           -2.70573830493442        1.74675200668191       -0.83002423794639
H           -2.46647690915381        1.74947903601302        0.92118261399726
H           -3.29242159758362       -3.58323019704781        0.73574727349489
H           -3.23425377299705       -3.60775764940266       -1.12651787818583
H           -3.54531194707796       -2.03900980599782       -0.21209571476420
H            2.09559805522247       -2.85744385322108        0.20771876031308
