25
 energy: 48.471274823540 xtb: 6.6.1 (8d0f1dd)
C            3.23771298066982        1.58399045906052        0.21520030424314
N            2.61994415018629        0.30003935942913        0.01887309299896
C            3.07912147418835       -0.93210743751642        0.16616437783175
N            2.05462940115303       -1.82533768479747        0.11037099168632
C            0.86644188594411       -1.12668979272775       -0.08271700185316
C            1.28050617207159        0.20519160840026       -0.18324321163604
C            0.35698395403251        1.28068784157929       -0.33560908109055
O            0.66743350728222        2.44813535359248       -0.52875519583974
N           -0.92352891963598        0.83706354429525       -0.18294673805363
C           -1.95451884326441        1.84523358639593       -0.03924783339398
C           -1.31323679854941       -0.52164381492785        0.02539130051186
O           -2.47618188128102       -0.65954065994476        0.31894254106608
N           -0.38987268721747       -1.51930327063121       -0.06087736469934
C           -3.50613553167125       -3.12655704511919       -0.20579741910590
H            4.24596796043061        1.47281868953127        0.59573716787394
H            3.22728746650701        2.15180500560361       -0.71385866943049
H            2.62391171375775        2.13697071745816        0.93305962341587
H            4.11182010257034       -1.19815220124089        0.23333685765424
H           -1.46522844151234        2.81723487090459       -0.10411260766364
H           -2.69977963374299        1.71519739010654       -0.82073648739787
H           -2.43709661363037        1.72617424790390        0.93133697014066
H           -3.46921959873536       -3.63341043399785        0.73294399211758
H           -3.41476761654266       -3.65540411930636       -1.12871522097904
H           -3.62450104583321       -2.06693822004374       -0.21192249457915
H            2.15753682645355       -2.82581176503696        0.21803644636895
