25
 energy: 39.397824960795 xtb: 6.6.1 (8d0f1dd)
C            3.47230495790983        1.79167694866394        0.14539103949715
N            2.82504182916149        0.50941798286625        0.05828209665653
C            3.34273781030671       -0.70533434153753        0.14908737446984
N            2.35732225323622       -1.63168184785414        0.10158817205675
C            1.14224244117317       -0.97913927596265       -0.01060260777184
C            1.47236257936695        0.38110550204825       -0.06281590037835
C            0.44778802227053        1.38175357343659       -0.16440640162921
O            0.64871535629210        2.58615835973865       -0.26591148878159
N           -0.79351352325624        0.80549107032492       -0.10985771059234
C           -1.92914496894642        1.70327434182726       -0.06546628052709
C           -1.08385604449347       -0.59938212856684       -0.00052943503902
O           -2.24378428662979       -0.91574481571625        0.10695662769547
N           -0.06007623781567       -1.48770568065935       -0.01555873604049
C           -4.31143603123566       -3.43742816779881       -0.22091228203878
H            4.33196760393187        1.75667898564632        0.80769588320925
H            3.77024720876301        2.14545294895373       -0.83845672089533
H            2.74139598969214        2.50757525138967        0.52310753786054
H            4.38602565569933       -0.92960012492954        0.22607898658859
H           -1.53550406177237        2.72102535117143       -0.11869775435273
H           -2.58994836610614        1.49353304404806       -0.90513894543499
H           -2.47945274058310        1.54012948659622        0.86208022476471
H           -4.57665891292646       -3.94033496251940        0.68226764591003
H           -4.54399466535048       -3.85844203892684       -1.17399443186888
H           -3.89508141921707       -2.46201717320436       -0.16591985873312
H            2.47964623566479       -2.63017599735938        0.17628917896556
