25
 energy: 41.872066294779 xtb: 6.6.1 (8d0f1dd)
C            3.38810084739490        1.72692656060931        0.16578452037602
N            2.75824287186092        0.43874454937141        0.04243484011234
C            3.25426409522591       -0.78310349601537        0.15990644295931
N            2.25593110367737       -1.69898031225264        0.10004237563503
C            1.05142013277583       -1.02815029119098       -0.04671647658871
C            1.41056034382584        0.32322361457704       -0.11676356913670
C            0.41964813858193        1.34915994759828       -0.24648554186975
O            0.65781187208126        2.54219857449545       -0.39007462405975
N           -0.83637993755897        0.81491020793687       -0.15556528589980
C           -1.92996064578793        1.75798387213223       -0.06521357772374
C           -1.16361768279521       -0.57494162798698        0.00188115109697
O           -2.32711535010733       -0.83793363009558        0.18395896157657
N           -0.16992520403731       -1.49571788251094       -0.04546254912004
C           -4.04107620550973       -3.32135067626928       -0.21793914200673
H            4.33292427402621        1.65704267483595        0.69524904606314
H            3.52128623683541        2.18616786970451       -0.81207312895284
H            2.70371150348873        2.38505021408503        0.70256837861038
H            4.29216255523641       -1.02161082407478        0.25076127045218
H           -1.48442321497052        2.75281591574678       -0.13763414741164
H           -2.63496102370298        1.57215140929988       -0.87334925916367
H           -2.43978362575950        1.61949952589305        0.88919672721623
H           -4.19381753693507       -3.85199278665835        0.69563311492044
H           -4.16034715907280       -3.80294418047250       -1.16332822229878
H           -3.83074354254277       -2.28078785351167       -0.18096104773163
H            2.36938026792392       -2.69841777970920        0.19904023231703
