25
 energy: 37.771257467899 xtb: 6.6.1 (8d0f1dd)
C            3.59617133413138        1.88916724846995        0.11514815722919
N            2.92434431785550        0.61614246550104        0.07929900403617
C            3.47416987141064       -0.58728283041081        0.12361186971974
N            2.51116611434399       -1.53224373585369        0.09681244934815
C            1.28128182437832       -0.90645235489274        0.04050611267752
C            1.56633180188775        0.46558001554269        0.01966067126166
C            0.49084997110536        1.42355637514034       -0.04173769247215
O            0.63299115719777        2.63953639652001       -0.08500007102411
N           -0.72590411363093        0.78678475079415       -0.03817697664601
C           -1.91692178861814        1.61505630573717       -0.06383921600046
C           -0.95688471550954       -0.63253684920495       -0.00776753432489
O           -2.10119477889506       -1.01869887383197       -0.00768365153839
N            0.10775292033014       -1.46965799061344        0.02253173823326
C           -4.72978976470486       -3.58321925534891       -0.22579329830479
H            4.30355150339277        1.93102322297960        0.94339912433295
H            4.12328944247055        2.07534074605080       -0.82040332829916
H            2.83422015593726        2.65897696046789        0.24956352874348
H            4.52514620593128       -0.78732114679945        0.16912184962533
H           -1.59711774107156        2.65714561519954       -0.08008906204833
H           -2.50858928259627        1.38173975659915       -0.94900384414445
H           -2.52490155058863        1.40988244580294        0.81801482023019
H           -5.12461592217204       -4.01254782832311        0.66856174802774
H           -5.09150760291411       -3.89736596543140       -1.18074446981441
H           -4.03904401636628       -2.77694971647740       -0.15937656483126
H            2.65090055368529       -2.52894207684746        0.12584735538411
