25
 energy: 51.759120052006 xtb: 6.6.1 (8d0f1dd)
C            3.20624068546842        1.51765997913105        0.19984193339763
N            2.57311829700673        0.23345598353289        0.01648510185203
C            3.00481184605988       -1.01306742519752        0.16201851866185
N            1.95378471567394       -1.87930170095028        0.10037472184851
C            0.77830737294399       -1.15862318526272       -0.08192842388305
C            1.22724352082393        0.16468215554113       -0.17906759340195
C            0.32924433396191        1.27053376917406       -0.29454241659943
O            0.66370331400918        2.44084109945630       -0.42746263557512
N           -0.96009455525415        0.85921170508314       -0.16213672826715
C           -1.97649432295805        1.88519650801625       -0.04153924568119
C           -1.38190654184572       -0.48036832286187        0.03629308518520
O           -2.55400209990526       -0.55620834076372        0.32762123663409
N           -0.49392589172344       -1.51753842891846       -0.05294114160014
C           -3.22730627604694       -3.05796320736015       -0.19766872405045
H            4.15307652049081        1.41444630300768        0.71435459531147
H            3.37429177291660        2.02137586548199       -0.75749048328476
H            2.53091636887259        2.14204107171105        0.79404524323419
H            4.03051449799218       -1.31036952040971        0.21812684280822
H           -1.45265226528390        2.83755533393134       -0.09258907723802
H           -2.70232688645136        1.77088800066808       -0.84093808937325
H           -2.49436174635173        1.77674210715912        0.91110967860878
H           -3.11305433755575       -3.53650164681559        0.74409548605061
H           -3.05601300272755       -3.56415496542214       -1.11509330781605
H           -3.46190837478653       -2.02054472727204       -0.20560909949222
H            2.03333655630019       -2.88192767869459        0.19634352956924
