25
 energy: 7.715647178704 xtb: 6.6.1 (8d0f1dd)
C            3.23229685348120        1.30519826482199        0.12314617082695
N            2.39438919416996        0.12781554109301       -0.00654475735105
C            2.73131184142458       -1.21712018179334        0.05868082086473
N            1.56877487704103       -1.95907515079671        0.04357542169808
C            0.47471712829817       -1.16483838763903       -0.02779562664618
C            0.98568580884326        0.15496716487377       -0.05561189593358
C            0.17537178495706        1.30128255376180       -0.09058558658369
O            0.49306613281644        2.49378803563346       -0.13898947093927
N           -1.19981170581110        0.94749400273705       -0.05843439467950
C           -2.14410839496570        2.04829153032965       -0.04855830565298
C           -1.73703588623764       -0.28754083997701       -0.05383126532141
O           -2.95077229651753       -0.39751898006435       -0.04644177649087
N           -0.90350089591563       -1.44201086859844       -0.04957576700008
C           -1.78092818717325       -2.64507069148137       -0.06768240462799
H            3.87246711221521        1.28694105126912        1.01370200001462
H            3.89510628635833        1.45384345021469       -0.74197791272440
H            2.57650055010407        2.17903709326079        0.20794577739080
H            3.71484828189203       -1.63299843144343        0.08497956692165
H           -1.55636088555200        2.96400518925452       -0.04390881218050
H           -2.76931820202850        1.99523329094462       -0.93538920272126
H           -2.76204169678784        1.99445290189270        0.84408147331512
H           -1.73147536554729       -3.27039394012523        0.82469500371704
H           -1.70323867304998       -3.26178360862132       -0.96301072376900
H           -2.78295256574530       -2.21327430919546       -0.07904957302787
H            1.57137963634795       -2.96385287378986        0.08866465202684
