25
 energy: -5.879655834445 xtb: 6.6.1 (8d0f1dd)
C            3.24893944339150        1.21027011930320        0.09825938543695
N            2.33204166431822        0.11239391456076        0.02304289999983
C            2.63319350372883       -1.24041177219734        0.03980579307542
N            1.44741093533337       -1.93773056914884        0.01256617941166
C            0.41752360591670       -1.07289979864064       -0.01086073994948
C            0.93798143438262        0.22111673157243       -0.00036339962269
C            0.12411359134501        1.37018977006280       -0.01699618942692
O            0.47015066166508        2.55586817684144       -0.01963563549437
N           -1.26446675018015        1.02064953838853       -0.03501985495042
C           -2.21435533920503        2.11826737870232       -0.04940554479042
C           -1.80681138660654       -0.22212305129186       -0.04936153488961
O           -3.00747275969825       -0.41378716532662       -0.07019241268447
N           -0.92731894391639       -1.32512905211170       -0.03819565238206
C           -1.54920338842357       -2.63257629491383       -0.06071154172075
H            3.75889445335112        1.24274068935624        1.06705757087227
H            4.00651537632888        1.14575331214556       -0.68833954563605
H            2.67849742517104        2.13303445343850       -0.02004967064271
H            3.60482918329036       -1.67500193887903        0.04559965174449
H           -1.64141685096237        3.04381168851304       -0.02705683460140
H           -2.82225559350824        2.06522475820370       -0.95204180905318
H           -2.86536100859230        2.04876548723242        0.82109465932317
H           -1.30934465001531       -3.21281276872325        0.83195425755089
H           -1.28357061261766       -3.19334014293292       -0.95870100470946
H           -2.62331753742601       -2.45402978208459       -0.07466073694941
H            1.38433904560218       -2.94093537596137        0.01708676643352
