25
 energy: 43.509768157530 xtb: 6.6.1 (8d0f1dd)
C            3.34463514885079        1.69459326921236        0.18042632378253
N            2.72454669021049        0.40379345974748        0.03454637485581
C            3.21114807595683       -0.82117940508460        0.16273417854740
N            2.20764713423246       -1.73318219251526        0.09872491817565
C            1.00751341894437       -1.05392964412328       -0.06364075694697
C            1.37989372867114        0.29269988764015       -0.14146075972918
C            0.40407910800719        1.32836554743981       -0.28307975420794
O            0.65859806265829        2.51514637976602       -0.44834095393670
N           -0.85696366130668        0.81241185802681       -0.17251591782147
C           -1.92938430084651        1.77874240045468       -0.06084288669725
C           -1.20115853250951       -0.56748329809711        0.00293190106897
O           -2.36476528154758       -0.80095182367072        0.22050912002530
N           -0.22213120841104       -1.50355163650735       -0.05643921279131
C           -3.90953917067903       -3.26821232379454       -0.21696897223708
H            4.32155207587866        1.61475139694630        0.64499591444423
H            3.40409135557786        2.20383578337015       -0.77907053889808
H            2.68740338788600        2.31820029077889        0.78797152782011
H            4.24666626730005       -1.06437565452419        0.25281549507285
H           -1.45561745157296        2.75982116312847       -0.13456037670873
H           -2.65255525591555        1.61112277848311       -0.85650300868089
H           -2.42240865136082        1.65138709923711        0.90340266508686
H           -4.00457817863606       -3.80329939849056        0.70269364875087
H           -3.96860768835337       -3.77120834705628       -1.15761975195947
H           -3.79833294547244       -2.21054367246516       -0.19023249327466
H            2.31806997197840       -2.73165638968153        0.21647861437048
