25
 energy: 37.757635329204 xtb: 6.6.1 (8d0f1dd)
C            3.63251030239590        1.91961850628838        0.10713911475534
N            2.95572756279206        0.64883028602584        0.08469272198541
C            3.51609881360814       -0.55037739099600        0.11351179989769
N            2.56102498089050       -1.50221769390779        0.08940000341764
C            1.32649166473427       -0.88589343027546        0.04781347551026
C            1.59714950140891        0.48958260524321        0.04106084894672
C            0.50647221734488        1.43235941534905       -0.00774010379148
O            0.62839969678049        2.65061283338206       -0.02715774514572
N           -0.70271799314056        0.77777748565194       -0.02667038395672
C           -1.90875194965801        1.58480356372700       -0.06623599468598
C           -0.91391098806459       -0.64261456173472       -0.01882369323251
O           -2.05050654333642       -1.05141931924037       -0.04936296252925
N            0.16248638910773       -1.46522583922952        0.02255785409378
C           -4.88084810286466       -3.60435553055417       -0.22532729131716
H            4.28709610457738        1.98889865109909        0.97789787715959
H            4.22350468626874        2.05488096171780       -0.80107724132839
H            2.87064432564270        2.69897039566351        0.16513777941482
H            4.56956600549085       -0.74091987042186        0.15195730546662
H           -1.61210821194642        2.63266133085044       -0.06999391271177
H           -2.48232687288865        1.34707117768056       -0.96225447716929
H           -2.52724292095079        1.36394196893924        0.80390699241243
H           -5.29558368144739       -4.01348216213042        0.66928569640197
H           -5.26435066094777       -3.89538884972087       -1.17889780662089
H           -4.10866348140835       -2.87519307352644       -0.16288715479999
H            2.70550893949941       -2.49827554266226        0.09979481370066
