25
 energy: 38.027723440081 xtb: 6.6.1 (8d0f1dd)
C            3.55623851839191        1.85748229249909        0.12436706023178
N            2.89191221603697        0.58150172426900        0.07279845941744
C            3.43109021711354       -0.62581453439143        0.13283258707628
N            2.46028661614044       -1.56420746958176        0.10032422464769
C            1.23499965235754       -0.92926439790668        0.02641835430542
C            1.53517302311167        0.43912491534168       -0.00599785393392
C            0.47624678644688        1.41168472455646       -0.08034913021507
O            0.63769720021014        2.62453896221448       -0.14389692258062
N           -0.74879590950407        0.79388517314554       -0.05848432440412
C           -1.92291699037015        1.64499310344612       -0.06356687503403
C           -0.99973315168106       -0.62126684447532       -0.00309258748168
O           -2.15035986294504       -0.98599063718428        0.03056849215903
N            0.05224595047094       -1.47526160426670        0.01358175757216
C           -4.58814453417315       -3.54412727191632       -0.22440859283693
H            4.31506139539893        1.87217186958814        0.90421841796544
H            4.01309216692437        2.09805199148794       -0.83353876825496
H            2.79906074896497        2.61371751839871        0.33770870322238
H            4.47950990066649       -0.83475359363052        0.18836911544136
H           -1.57884580314892        2.67998755316271       -0.09219126363050
H           -2.53603826242833        1.41798606139570       -0.93519582495312
H           -2.51460362518687        1.45445414737437        0.83263071571783
H           -4.94827046341102       -3.99925856700933        0.67150603496496
H           -4.91481287751754       -3.89188696783958       -1.17989799741855
H           -3.98324428104886       -2.67246880111207       -0.15905865047964
H            2.59475822579269       -2.56155690240855        0.14551423684929
