25
 energy: 40.499561049466 xtb: 6.6.1 (8d0f1dd)
C            3.42972319045757        1.75887957330566        0.15587388259457
N            2.79129446562927        0.47358097747017        0.05043592104873
C            3.29819725644744       -0.74469543376122        0.15541511874061
N            2.30593590239636       -1.66547325637817        0.10119277277556
C            1.09609863523793       -1.00406139158094       -0.02902668949865
C            1.44102215443608        0.35183077464989       -0.09061067708775
C            0.43374929113571        1.36596037053380       -0.20640013622793
O            0.65408539758515        2.56489507474836       -0.32837387233039
N           -0.81521216111338        0.81117273786928       -0.13445192167074
C           -1.93087411684727        1.73132865914071       -0.06663154683121
C           -1.12443638937007       -0.58730944333801        0.00056593326535
O           -2.28695098578753       -0.87724281657749        0.14535064879146
N           -0.11588079753445       -1.49298958575173       -0.03012754595128
C           -4.17570617722867       -3.37870265964028       -0.21926497366164
H            4.33475133731836        1.70411054780544        0.75235939651003
H            3.64436137731359        2.16740801902765       -0.82891299326299
H            2.72008034168197        2.44784866237409        0.61514504132888
H            4.33880107988280       -0.97629400151580        0.24090601724300
H           -1.51473157755355        2.73962449755228       -0.13289212325357
H           -2.61480226035970        1.53092488264690       -0.88947837030901
H           -2.45933912100967        1.58134670214922        0.87578794371067
H           -4.38532704457935       -3.89869834066794        0.68889934183115
H           -4.35272151902399       -3.83273817079781       -1.16909325273280
H           -3.86129635644784       -2.36557157523999       -0.17260981336003
H            2.42314163129770       -2.66433946201446        0.18910198896072
