25
 energy: 38.558658353211 xtb: 6.6.1 (8d0f1dd)
C            3.51471596600064        1.82482183791723        0.13471094288661
N            2.85860552689904        0.54573426653309        0.06578446542679
C            3.38710836856568       -0.66539942152286        0.14145041358009
N            2.40891310375153       -1.59764045202206        0.10155804229252
C            1.18865429365797       -0.95388442125785        0.00859302928146
C            1.50371037089898        0.41051853647621       -0.03411948749020
C            0.46183261109558        1.39739510884509       -0.12181771897918
O            0.64312713425176        2.60642574621427       -0.20412999760483
N           -0.77143576873584        0.80020651691618       -0.08369815196170
C           -1.92689002813329        1.67450105959358       -0.06439974302936
C           -1.04216952932906       -0.61038232786863       -0.00127995074048
O           -2.19809441027159       -0.95182140296951        0.06879778231426
N           -0.00395937033121       -1.48137988423796       -0.00008308307126
C           -4.44928890128736       -3.49370584881208       -0.22270946577341
H            4.32500333135080        1.81328806577592        0.85884521562801
H            3.89448277529977        2.12179304605114       -0.83996967970408
H            2.76785439738345        2.56315796054327        0.42961371443503
H            4.43304817871054       -0.88215295053911        0.20794644128959
H           -1.55846161760212        2.70155601671929       -0.10532794782719
H           -2.56368065444220        1.45536379864086       -0.92051558386656
H           -2.49875774608818        1.49779909372402        0.84748103018736
H           -4.76497586964559       -3.97471541911152        0.67635896673449
H           -4.73186372412921       -3.87872578959663       -1.17776351567567
H           -3.93486388577603       -2.56592510451130       -0.16129395097956
H            2.53709357432132       -2.59562036387090        0.16209101191917
