  72
        -99.25067557
 N         -1.7521561754        2.7210047317        2.5513696031
 C         -1.7478554316        2.0874038820        1.4765563020
 C         -2.9012804393        2.0237077044        0.5139692964
 C         -3.4208778635        0.5965495434        0.4360647878
 C         -4.3484173109        0.2463799484       -0.5472655601
 C         -4.8737577626       -1.0332198575       -0.6240729886
 O         -5.7796469451       -1.4513338442       -1.5304992310
 C         -6.3512826052       -0.5197897381       -2.4188558854
 C         -4.4540091910       -2.0198782766        0.3098391584
 O         -5.0132532673       -3.2358828823        0.1588631212
 C         -4.7296765731       -4.2435631534        1.1020914780
 C         -3.5323871587       -1.6654027008        1.2825033099
 C         -3.0264540192       -0.3733580145        1.3453016389
 C         -2.3246177979        2.4643301995       -0.8571500449
 C         -1.4410722680        1.4100594141       -1.5473264975
 C         -0.1246417916        1.2092648005       -0.9009091068
 N          0.4484449001        0.0321669874       -0.6885635616
 C          1.8222418071       -0.0554600024       -0.2491973111
 C          2.7680476184       -0.4136410260       -1.4115990450
 C          4.1852481534       -0.5266288110       -0.9098078266
 C          4.9942581387        0.6010986285       -0.8685045650
 C          6.2987725997        0.4865855392       -0.3773261852
 C          6.6857552661       -0.7320820503        0.0339219824
 O          8.7023663524        2.0098139579        0.1446605433
 C          9.6382217959        2.9280633156       -0.0644513915
 C          5.9672333063       -1.9014288555        0.0301575531
 O          6.5136420863       -3.0429670128        0.4701663339
 C          5.7689297582       -4.2371236264        0.4195194921
 C          4.6580517134       -1.7556625293       -0.4645765090
 C         -0.2401053786       -1.2105688804       -0.9468066539
 C         -4.0896780881        2.9492388091        0.9122330960
 C         -4.7218436325        2.5095957964        2.2306281036
 C         -3.7047438254        4.4237300640        0.9914305925
 H         -4.6777386347        0.9909356897       -1.2529162690
 H         -6.8460267762        0.2946009441       -1.8813324566
 H         -7.0922246585       -1.0774058497       -2.9883076159
 H         -5.6054196453       -0.1071733824       -3.1059386195
 H         -5.0131832998       -3.9364820414        2.1130043835
 H         -5.3300939384       -5.1004659952        0.8033208016
 H         -3.6708152171       -4.5211060653        1.0873404642
 H         -3.2100241551       -2.3870046765        2.0153312095
 H         -2.3374893103       -0.1270988181        2.1383924318
 H         -3.1523449557        2.6975306862       -1.5259317119
 H         -1.7474277239        3.3787495622       -0.7163967791
 H         -1.9918670664        0.4751202304       -1.6339459495
 H         -1.2485905440        1.7800275410       -2.5631261051
 H         -0.8677987473        1.5369240539        1.0882311895
 H          0.4851212412        2.0834101619       -0.7252719758
 H          1.8998209938       -0.8181428105        0.5308417172
 H          2.1307447696        0.9007710001        0.1777215026
 H          2.7045651785        0.3672697020       -2.1713307601
 H          2.4539187523       -1.3566917918       -1.8616287555
 H          4.6370524740        1.5562481037       -1.2209680549
 H          6.9819502427        1.3266840351       -0.3243510927
 H          9.3427356539        3.9178363815        0.3359979494
 H          9.8563663107        3.0625421865       -1.1449822167
 H         10.5953694314        2.6515183717        0.4272278599
 H          6.4322252156       -5.0110170368        0.8006244050
 H          4.8783556127       -4.1829009559        1.0545147935
 H          5.4774398324       -4.4855767458       -0.6060037415
 H          4.0145323796       -2.6221258227       -0.5120084772
 H         -0.4292390811       -1.3428400716       -2.0141313666
 H         -1.1942704250       -1.2362339379       -0.4150591199
 H          0.3716636286       -2.0385577107       -0.5982032092
 H         -4.8441528076        2.8382213815        0.1249032427
 H         -4.0108093770        2.6267478555        3.0421146896
 H         -5.0416611114        1.4712436879        2.1875569583
 H         -5.5912380694        3.1266185479        2.4410562937
 H         -2.9286260171        4.5719026763        1.7359475119
 H         -3.3629298456        4.8072733332        0.0338266390
 H         -4.5750702773        5.0025449705        1.2893277123
 H         -0.9065675697        2.7226098075        3.1124543673
