25
 energy: -42.142005431029 gnorm: 0.002647886289 xtb: 6.6.1 (8d0f1dd)
C            3.53685303160543        0.76542696411556        0.33574285517520
N            2.57616636801792       -0.28727128958534        0.16948521615250
C            2.55424863333465       -1.45193855936021        0.76670123336668
N            1.49476601690172       -2.16778725883010        0.41080468376171
C            0.68375888263022       -1.43256402014284       -0.51078112685740
C            1.44777582916640       -0.18394252044974       -0.66239249931582
C            1.09357527454616        0.88446799478334       -1.35702701802577
O            0.77064572457868        1.77011356097300       -2.00694815197283
N           -2.53352384560017        2.39403704855675        0.64489764099902
C           -3.91983761598816        2.60105889016123        0.52280773288171
C           -1.55160570064957        1.75592579771399        0.74952093994763
O           -0.48646230425716        1.27949117326372        0.83669164764451
N           -0.38812220134303       -1.72747438558126       -1.07210215593445
C           -1.13131289010667       -2.93340872687175       -0.92116734725727
H            3.04522748939588        1.65681547810380        0.73046891994713
H            4.31298987600955        0.44819797396894        1.02950141427051
H            3.99422740472407        1.01567237195670       -0.62300872612035
H            3.31027400610698       -1.78327902769574        1.45872097892487
H           -4.08065165850791        3.65228318622300        0.28661703181743
H           -4.33157995176902        1.98472218330135       -0.27823056957541
H           -4.42184922038926        2.36433503846917        1.46235980419548
H           -0.60417580041843       -3.74939282343048       -0.41730757635733
H           -1.43397873818226       -3.25450342513599       -1.91805110414833
H           -2.04175073849802       -2.69750597428241       -0.36623738650282
H            1.26477364273512       -3.08524110861230        0.76010518084549
