72
 energy: -1.838633262722 xtb: 6.6.1 (8d0f1dd)
N           -1.62674251110774        2.88575571277183        2.31418396498933
C           -1.62582768576709        2.20969995467057        1.25637754094021
C           -2.77716537534829        2.09337508176595        0.29874361786646
C           -3.32544683593117        0.67462012255150        0.36328095749692
C           -4.27099718131010        0.25281501272307       -0.57196336146291
C           -4.79946014416819       -1.02332988045813       -0.53930782771416
O           -5.72986244918529       -1.50969964595341       -1.40828972839310
C           -6.28706680120314       -0.63623127272941       -2.35591785680976
C           -4.37348684479308       -1.93171180472240        0.45458831679356
O           -4.94450369607203       -3.16812766006795        0.40372857033674
C           -4.63970788198596       -4.09028052627258        1.41770724504314
C           -3.43995321047575       -1.51230749062764        1.38215280844715
C           -2.92387384068250       -0.22213739665967        1.33621911460165
C           -2.17683151931538        2.34766951681533       -1.10681431807264
C           -1.22299547469182        1.23929321265332       -1.58838819925906
C            0.05102206369475        1.19659671766653       -0.81226793257708
N            0.71251864603123        0.03230592836613       -0.46107771265363
C            2.13210933976513       -0.02221928811730       -0.19114625065088
C            2.97391800201952       -0.71700226871942       -1.42515034224391
C            4.40364126031820       -0.59273359944360       -1.01644417238179
C            5.09691871193918        0.58967866666152       -1.21724617923901
C            6.37771243571918        0.75381840569653       -0.71524175118404
C            6.97999558936578       -0.25990335006322        0.00749810227723
O            8.22178162428186       -0.20094877523115        0.56254831784370
C            8.97663291356190        0.96633984987822        0.36982378260206
C            6.28736798924316       -1.47259692373875        0.21367855970868
O            6.96680362268532       -2.41210956859506        0.93134172190283
C            6.36738294578732       -3.66401707661517        1.13876175787841
C            5.01306547853245       -1.62072957036293       -0.29614085511407
C            0.02665315769700       -1.22934604824654       -0.57202196570534
C           -3.93340541999439        3.08900284556044        0.58065803024159
C           -4.60446962822189        2.79190363266537        1.91992217998484
C           -3.49062751129878        4.54988576889528        0.54122309967932
H           -4.60237559461205        0.94147717683153       -1.33163095606669
H           -6.76278985653925        0.22811502050972       -1.88042161843534
H           -7.04243174351990       -1.22082108032434       -2.87860480213675
H           -5.53999682195002       -0.28752058705026       -3.07690215820587
H           -4.90674338141407       -3.70634684328145        2.40834380191761
H           -5.24141552768138       -4.97129940425940        1.19947813172629
H           -3.58020922060813       -4.36816143616510        1.40810212968855
H           -3.10687052302048       -2.17856064483897        2.16232981777454
H           -2.21631026847100        0.07869439503704        2.09351292201059
H           -2.99070332630511        2.44690672553083       -1.82779380292487
H           -1.63426086782657        3.29372983621924       -1.09369424750599
H           -1.75137908923555        0.28565339259832       -1.55215059148384
H           -0.99756772617528        1.45233463673855       -2.64333211540829
H           -0.74198092289417        1.68503961289759        0.84542585535118
H            0.66222948409114        2.08809472355092       -0.82082229821455
H            2.25217738156133       -0.65724255845559        0.69863841150909
H            2.49317173850759        0.97637471456147        0.12399455705780
H            2.79279308054883       -0.14743378193120       -2.33881459842937
H            2.70778909890736       -1.76626626412750       -1.62171487632881
H            4.64384364937630        1.39533351674762       -1.77554630477013
H            6.89176087292222        1.68458046908811       -0.89102466151748
H            8.49357003964899        1.83996508750292        0.81846254746293
H            9.16065561150458        1.16385182832601       -0.69159603158248
H            9.92189038698004        0.78424135451527        0.87637798478658
H            7.09757479523718       -4.24665776748622        1.69710142591052
H            5.44603846007859       -3.58923008000596        1.72457955081258
H            6.15078690897269       -4.17204788698987        0.19279206136673
H            4.47285265414052       -2.54307442445023       -0.14635401127383
H           -0.13280526009872       -1.51050073525045       -1.61876651968986
H           -0.94631266795314       -1.19491308313428       -0.07105029713131
H            0.63825291853318       -1.99063893165013       -0.09335741721329
H           -4.67822531580372        2.94486351379740       -0.20959888527849
H           -3.90237535851800        2.95804170551504        2.72803788983374
H           -4.95282537642750        1.76251405646028        1.96060228959556
H           -5.45772509133030        3.45171053617138        2.05951226261375
H           -2.72700284409759        4.72953019196163        1.28985964568832
H           -3.10915618380521        4.82957069625122       -0.43738118236855
H           -4.34142813008567        5.19049349772641        0.76253131527440
H           -0.76442310400392        2.89007972456280        2.85279818066444
