72
 energy: -5.768664128959 xtb: 6.6.1 (8d0f1dd)
N           -1.54395281766165        2.81706185359337        2.26698559739704
C           -1.57917261395733        2.17225639863085        1.19025468467002
C           -2.75810251767460        2.07262159578511        0.26563129671103
C           -3.31904446097180        0.65851659329842        0.33988092793363
C           -4.29083152705602        0.24877622416821       -0.57440903211395
C           -4.82941733035096       -1.02267922818153       -0.53400031852948
O           -5.78383582004646       -1.49787159788901       -1.38226086197225
C           -6.35233433494790       -0.62010655335622       -2.31938281444362
C           -4.38846723666178       -1.93819429133087        0.44721369485657
O           -4.97299309538649       -3.16824217170401        0.40704317770204
C           -4.65424496922735       -4.09611350052505        1.41161617973077
C           -3.42937290396207       -1.53080834507199        1.35384945004678
C           -2.90168863681392       -0.24541112785070        1.29966154470342
C           -2.18794743585306        2.31955098833875       -1.15437536119803
C           -1.24623365261331        1.20432003949784       -1.63938843319468
C            0.02438904319185        1.15467065110457       -0.86501898149701
N            0.66689435959736       -0.01789823064306       -0.52115310365372
C            2.06367027601056       -0.03690955606467       -0.18069323345914
C            2.95176323063850       -0.61113857729301       -1.33843437866481
C            4.37833359083836       -0.49668392292656       -0.90981412917252
C            5.08380424545616        0.67509784784485       -1.11210538621480
C            6.38259159519738        0.80733026259539       -0.64715914659579
C            6.98978861702113       -0.22931550057915        0.03785071701853
O            8.25451641161068       -0.20755969489080        0.54230912102625
C            9.03182024042828        0.94342248560510        0.33929148849342
C            6.27700445488933       -1.42969098325300        0.25362913929848
O            6.95879058172966       -2.39489871543726        0.93167403661864
C            6.33644020197527       -3.63458542651264        1.14692710609516
C            4.98425826541626       -1.54441376701029       -0.21651445477925
C           -0.01910201693877       -1.27592111529678       -0.60068108897042
C           -3.89427642301189        3.08168019212406        0.58229318537926
C           -4.53908114386911        2.78194199000187        1.93392704619323
C           -3.43244346096491        4.53715438335255        0.54583654855468
H           -4.63633704752747        0.94372027417134       -1.32198563022135
H           -6.81467200213529        0.24649948810525       -1.83481086595561
H           -7.12097520655391       -1.19978497398578       -2.82806602163400
H           -5.61646365820788       -0.27616360654330       -3.05435352178825
H           -4.89279946406857       -3.71124579081475        2.40890392214393
H           -5.27178468794293       -4.96912242970015        1.20605268443065
H           -3.59849774585577       -4.38600625226147        1.37649299469115
H           -3.08485691305396       -2.20259049271730        2.12429652627446
H           -2.17404082743810        0.04561975184418        2.04160490250637
H           -3.01206330810402        2.41047636364805       -1.86360151401677
H           -1.64356260240639        3.26505633811710       -1.15864817253878
H           -1.78110891972212        0.25482168490341       -1.59711265161120
H           -1.00962673113852        1.41185803521340       -2.69212645399738
H           -0.70641314690559        1.66402376674645        0.72079567040960
H            0.65285498080387        2.03161749248586       -0.89824643712053
H            2.17491173730882       -0.66041104448222        0.71754944245488
H            2.37602152364659        0.97622934305643        0.11722792791872
H            2.78027533454283       -0.01759512328705       -2.23843899868608
H            2.69667851274530       -1.65022887771028       -1.56034758611920
H            4.62969499374763        1.49526958388817       -1.64767323532812
H            6.91067631415380        1.72882085070569       -0.83023347385068
H            8.58752076626114        1.82250637442465        0.81738861629671
H            9.18425923455055        1.15011270751511       -0.72550033416981
H            9.99040457492757        0.72842584355046        0.80702886885842
H            7.07231151099645       -4.24141225869269        1.67141945088354
H            5.44037924921916       -3.54024241311345        1.76911236750570
H            6.07224134026422       -4.12533411738794        0.20405875898183
H            4.42983342292983       -2.45750094966029       -0.06229021715345
H           -0.18527254446771       -1.57918153717705       -1.64011444304591
H           -0.98853302343548       -1.22349407865507       -0.09518133608896
H            0.59093171108279       -2.03007472088147       -0.10878045185110
H           -4.65750709505833        2.95234827168057       -0.19324504166426
H           -3.81600951092984        2.92475976813995        2.72895739482128
H           -4.90614261198614        1.75904810975933        1.97111645216564
H           -5.37677395458910        3.45550888548199        2.09858368561620
H           -2.65079404563744        4.70361534507394        1.27979910392279
H           -3.06731603139043        4.82121420267869       -0.43785951655892
H           -4.27098274373303        5.18573875413635        0.78913659962181
H           -0.66245497095911        2.81643194591130        2.77534172871928
