72
 energy: 31.030969785413 xtb: 6.6.1 (8d0f1dd)
N           -1.77056620263868        2.99137277311659        2.39187453250755
C           -1.70889702023700        2.27960914644006        1.36295525273819
C           -2.81210420667952        2.12858668271001        0.35386595912938
C           -3.33751766084591        0.70108730315952        0.40370162111995
C           -4.23740118107764        0.25945013057960       -0.56694022222748
C           -4.74949927386045       -1.02416652795942       -0.54741562541373
O           -5.63835369575124       -1.52795581762714       -1.44860964479831
C           -6.17853018723220       -0.66477401065206       -2.41631793687138
C           -4.34900786077324       -1.92116666256232        0.46830807915068
O           -4.89680615319485       -3.16590898718020        0.40087431323198
C           -4.61592129012728       -4.08116652632404        1.42858992359730
C           -3.45863258522491       -1.48245355493194        1.42917527334443
C           -2.96199202644401       -0.18416958908924        1.39707091274562
C           -2.16128703416108        2.39472815926805       -1.02679230156522
C           -1.19410989392892        1.29319861991989       -1.50145321068108
C            0.08688055913841        1.25288454104595       -0.72739493868441
N            0.76010489177280        0.14002749898420       -0.36659955977763
C            2.08235227301939        0.13419106320730        0.00493615814039
C            3.12569691595307       -0.97204811552892       -1.70603387536167
C            4.44436982855097       -0.76476996509115       -1.20466466753641
C            5.12408736076017        0.44792785373254       -1.38842724585255
C            6.36549958350106        0.66559108946013       -0.82528619694085
C            6.96081957439127       -0.31080361713859       -0.04355429143806
O            8.16372417322430       -0.19020141220624        0.58771735656177
C            8.87924584962148        1.00191487974777        0.41416405245155
C            6.30127182293408       -1.54398095738956        0.14959707732135
O            6.97966883978871       -2.44317465293495        0.92678411300864
C            6.42102292602841       -3.71316827967332        1.12494019531744
C            5.06715879276849       -1.75319363496004       -0.42112152665508
C            0.10065058440164       -1.14632229332428       -0.52988394272824
C           -3.99866605825239        3.10281941570574        0.57964390140571
C           -4.71237670577928        2.81241852429889        1.89882168054272
C           -3.58695978198508        4.57236947184541        0.53102657468508
H           -4.54554316987885        0.93796942577427       -1.34529678522981
H           -6.67844761409887        0.19557922854456       -1.95879288975429
H           -6.91078408250606       -1.25922860097053       -2.96053020299246
H           -5.41404440400506       -0.30954667526653       -3.11511308050760
H           -4.93095323511114       -3.70093268588100        2.40655685804249
H           -5.19078968241850       -4.97427361773129        1.18825096576180
H           -3.55184390571735       -4.33870009217337        1.46158272321003
H           -3.14547779806382       -2.13965001435944        2.22496300788573
H           -2.28981748912340        0.13135047176306        2.18024411993395
H           -2.95573482243344        2.50652190588669       -1.76761289659868
H           -1.62219463714235        3.34157461010976       -0.98583124008031
H           -1.71268641849955        0.33465775857329       -1.47391906413727
H           -0.97217570289164        1.51124588636140       -2.55607765243927
H           -0.81103490618897        1.72865421756456        1.05520436195077
H            0.65486967995749        2.17467408400068       -0.67849897336071
H            2.35553575385263       -0.65019358114099        0.69201394586972
H            2.52160320413246        1.09803977534864        0.29309378700424
H            2.83074723865598       -0.35481069256369       -2.53498798587028
H            2.77191978356048       -1.99770728909013       -1.78222895237949
H            4.67269781353636        1.22464796093748       -1.98770327379327
H            6.85859010834475        1.61032163393425       -0.99193326841759
H            8.33549311210976        1.86522499931561        0.80987329914507
H            9.11968541929172        1.18546822391870       -0.63761698233781
H            9.79626879607595        0.87382004388199        0.98419742821525
H            7.13936127080025       -4.25408795464141        1.73887838073797
H            5.46263988460635       -3.67196796060318        1.65048930442663
H            6.28330762190521       -4.24889099275117        0.17892502624537
H            4.55192783548801       -2.69134303861796       -0.28539147322127
H           -0.03464803503791       -1.38794384158252       -1.58876400801417
H           -0.87870847039452       -1.15117339284519       -0.04418744534240
H            0.72258061476238       -1.91283757972939       -0.07722269296375
H           -4.71169831466871        2.93084675421113       -0.23404546843767
H           -4.04730444272783        3.01907823405679        2.72847391749479
H           -5.03083061037738        1.77376692036071        1.94947702540448
H           -5.59064205194312        3.44773322662498        1.99278589533947
H           -2.85356059382386        4.77878759029430        1.30172500813277
H           -3.17933035756633        4.84463090086971       -0.43899601839822
H           -4.45741549442555        5.19829410376115        0.71487350896326
H           -0.93843895618223        3.01576304204886        2.97481541256697
