72
 energy: 35.712158474814 xtb: 6.6.1 (8d0f1dd)
N           -2.01158032996203        3.16124063885704        2.50277869033454
C           -1.84462487315182        2.38533102377861        1.53235189878145
C           -2.86174656228401        2.18419136328417        0.44169919852063
C           -3.35355624379673        0.74427987314310        0.46663123790475
C           -4.17903417059582        0.27253678408134       -0.55648217804657
C           -4.66582750291106       -1.02114555856761       -0.55647799270085
O           -5.48881292203783       -1.55072408212070       -1.50528103812585
C           -5.99986885828298       -0.70719332233523       -2.50571631143214
C           -4.30867274641667       -1.90123576464739        0.48981844083732
O           -4.82195917667998       -3.15964878530872        0.39869634240009
C           -4.58035953158104       -4.06414055277846        1.44534604009485
C           -3.49328137049501       -1.43394591314149        1.50235566751788
C           -3.02756147712601       -0.12412584049267        1.49161776016378
C           -2.13260882691659        2.46916140307851       -0.89841981536110
C           -1.14985759671266        1.37840352409530       -1.36772894741725
C            0.13547324536707        1.36650478349948       -0.60116738526333
N            0.81109100711116        0.29058272204243       -0.22200198296939
C            2.00341562289190        0.34591375791658        0.36601331503561
C            3.35794086241494       -1.35331355854382       -2.15074185467966
C            4.52980532582211       -1.02897398737424       -1.49239670838003
C            5.17959125698609        0.22358985275686       -1.65888418528433
C            6.34865506811635        0.52614730824311       -1.00141701468376
C            6.92792582238144       -0.38684727776066       -0.12697317714744
O            8.05136565599423       -0.17335012965865        0.60966587985961
C            8.71665636326302        1.05463405050471        0.47987277495344
C            6.32026035823186       -1.65814369098967        0.04475690462157
O            6.97903663063421       -2.48689316854733        0.90940022788179
C            6.50042348921559       -3.78904862783309        1.10332469971186
C            5.16073009487990       -1.95964439938381       -0.62025097845281
C            0.20394354165518       -1.01591831576980       -0.45765856775005
C           -4.09672640304333        3.11990208390951        0.57739435691657
C           -4.88148986045719        2.83763498980639        1.85853566614453
C           -3.73945108359141        4.60387455533510        0.51535163176282
H           -4.45033988949204        0.93557665324624       -1.36132881123961
H           -6.53984238091874        0.14564887146578       -2.08122235054744
H           -6.69326385000514       -1.31989585860433       -3.08017989522654
H           -5.21080817826550       -0.34188617428767       -3.17124979285301
H           -4.97084561375813       -3.69270256060248        2.39873519427556
H           -5.11083010459311       -4.97445765973609        1.17102048178362
H           -3.51385728068150       -4.28981546260175        1.54918100356027
H           -3.21419747430286       -2.07760951813819        2.32152457836256
H           -2.41568946030727        0.21131384659759        2.31424946651088
H           -2.89010487874967        2.60304781683119       -1.67290711189490
H           -1.59405130644704        3.41319723727876       -0.81122261576688
H           -1.65527996759350        0.41217488963898       -1.34192456248324
H           -0.93782348210713        1.59437957698745       -2.42494175780440
H           -0.92811762115982        1.80854275622371        1.38829966036074
H            0.63878356763383        2.30761335551586       -0.45306162512780
H            2.43535491280392       -0.53921309718956        0.78025816624045
H            2.43947163403835        1.29735996346632        0.61095243614322
H            2.93075487972274       -0.66702369205858       -2.85982738931817
H            2.91067573051815       -2.33152921165539       -2.08110252765079
H            4.73546260225967        0.95075652080716       -2.32038380639627
H            6.80029621798386        1.49464295481101       -1.15245131090233
H            8.08449314469305        1.89264047055109        0.78680264157902
H            9.06208445050587        1.22688892267132       -0.54331613542471
H            9.57188964614193        0.99810236836490        1.14898982899803
H            7.19341130840702       -4.24901797371622        1.80872741349274
H            5.49268382802815       -3.80545228576374        1.52680624821734
H            6.50063884968037       -4.36115736606909        0.16974737655218
H            4.68815782164276       -2.92103421549497       -0.50186063707617
H            0.09637598990597       -1.20189423377399       -1.52869537051966
H           -0.78051640614648       -1.07872102888165        0.01192344694867
H            0.84380007708271       -1.78684318934275       -0.03941742787077
H           -4.75665649178070        2.89968416690194       -0.27075963542440
H           -4.28433779739829        3.10610270308383        2.72208066540321
H           -5.15394204148551        1.78703822994615        1.92723473967232
H           -5.79512417644084        3.42815629064226        1.86999369689054
H           -3.05866843543533        4.85570490200018        1.32039864976898
H           -3.28810163703218        4.87008595301900       -0.43641886758394
H           -4.64246698695915        5.19830938111338        0.63444992105844
H           -1.23332804401962        3.21801998525001        3.15557867959865
