72
 energy: 14.412285419950 xtb: 6.6.1 (8d0f1dd)
N           -1.71205524124305        2.95046708516544        2.36101543203217
C           -1.67478591067817        2.25114562473088        1.32057373522583
C           -2.79752331154356        2.11447846639698        0.33161676353253
C           -3.33233380378528        0.69055788779423        0.38759164447696
C           -4.25106631279757        0.25693574211280       -0.56883979704172
C           -4.76980781833088       -1.02362955152503       -0.54394497835879
O           -5.67564927344179       -1.52052426722731       -1.43262482745459
C           -6.22214690222907       -0.65278362932363       -2.39207651669917
C           -4.35896524300218       -1.92505349200311        0.46299924005336
O           -4.91642164101826       -3.16675305328208        0.40202252037302
C           -4.62565522586094       -4.08433106386562        1.42449068596873
C           -3.45119180181600       -1.49406354072091        1.41090385930492
C           -2.94654079535845       -0.19907564869714        1.37328689719093
C           -2.16672631860788        2.37579048264205       -1.05932898560823
C           -1.20397702743704        1.27184061475788       -1.53661765959525
C            0.07172756093116        1.23460695936766       -0.75939430795204
N            0.74442473449555        0.08763655305600       -0.40230296305880
C            2.13065148725905        0.04033451741654       -0.12537550020869
C            3.03186259155763       -0.83575399222526       -1.54625530770117
C            4.42957604526317       -0.68916691353319       -1.12307417956287
C            5.11336674799361        0.50585824240471       -1.31976252723181
C            6.37332231326146        0.70110868694867       -0.78162250978209
C            6.96990706443145       -0.29040624913211       -0.02320840123128
O            8.18857032533542       -0.19449463293366        0.57908604965987
C            8.92024926500071        0.98857495596150        0.39859049066285
C            6.29706556230518       -1.51500459666676        0.17423643603456
O            6.97468577105077       -2.43051332624095        0.92858280094956
C            6.39938780319329       -3.69377869961988        1.13009699866502
C            5.04376389424205       -1.69744486382667       -0.37300045379959
C            0.06923133555857       -1.18295145989102       -0.54716924603039
C           -3.97249188426787        3.09702610687323        0.57980289888476
C           -4.66975865387213        2.80317938664232        1.90663634512018
C           -3.54877920001752        4.56326369072677        0.53600442658381
H           -4.56872161660286        0.93952203126491       -1.33986366584270
H           -6.71222664105800        0.20914549266120       -1.92697094262414
H           -6.96366289050028       -1.24311672866603       -2.92807893760528
H           -5.46438091806924       -0.29987965540886       -3.09950252326231
H           -4.92131187140501       -3.70226984591842        2.40787186778191
H           -5.21123569337664       -4.97283935702607        1.19309158332726
H           -3.56305146881623       -4.34994830327763        1.44024676747578
H           -3.13000879913656       -2.15485872269491        2.20064144118575
H           -2.26007167039775        0.11079677714092        2.14632058160721
H           -2.96892405413488        2.48325755649563       -1.79226429670748
H           -1.62551721848811        3.32207069288619       -1.02892139713482
H           -1.72636676771659        0.31485710538075       -1.50626064535746
H           -0.98226655614681        1.48800528802355       -2.59226046692087
H           -0.78113131619747        1.71073661342917        0.96991559137999
H            0.66261028847068        2.14025675893157       -0.73841055087439
H            2.31776610772958       -0.65557153519552        0.69199705055268
H            2.53094255294000        1.02761501967369        0.19865608587370
H            2.81158329362397       -0.27109635949048       -2.44710907805764
H            2.73935440772412       -1.88714964757588       -1.70023142309026
H            4.66096535820676        1.29503318779153       -1.90221512336584
H            6.87450870729445        1.64036328476795       -0.95108895548258
H            8.39992774681244        1.85590968093381        0.81704666202044
H            9.13703516337375        1.17771093686303       -0.65800255315163
H            9.85014475083832        0.83927202894876        0.94298408057566
H            7.12315710473788       -4.25141719100882        1.72187645782960
H            5.45518552464304       -3.63904262251516        1.68012843331196
H            6.23001286924556       -4.21883086477319        0.18331443997747
H            4.51777105000378       -2.62932191978280       -0.23049045757214
H           -0.07689689637050       -1.43877992229800       -1.60183330802607
H           -0.90722455663531       -1.16993591726630       -0.05362880756537
H            0.68597907335605       -1.94882406670953       -0.08450687709617
H           -4.69820570123953        2.93657669892300       -0.22486787766727
H           -3.99016181792614        2.99304114084691        2.72844944054718
H           -5.00009167299177        1.76796717859650        1.95187298865583
H           -5.53809122224655        3.44865545032948        2.01926388177877
H           -2.80342148516992        4.75832034822677        1.29860978694274
H           -3.15134044957168        4.83885023746356       -0.43735857566832
H           -4.41184107139000        5.19485769792162        0.73487885167522
H           -0.86781306751758        2.96568713325781        2.92715730753557
