72
 energy: 35.680434980666 xtb: 6.6.1 (8d0f1dd)
N           -2.04069788132226        3.18327903252219        2.51441979716717
C           -1.86193499107744        2.39873170986129        1.55290057463289
C           -2.86800250490417        2.19117257547982        0.45277334888907
C           -3.35549483761019        0.74969660700369        0.47447022618841
C           -4.17167783485847        0.27445701874452       -0.55492544231200
C           -4.65535135134076       -1.02038098522102       -0.55745282275289
O           -5.46976188681409       -1.55286898120018       -1.51199073594017
C           -5.97694265231421       -0.71181874985730       -2.51654199121826
C           -4.30355973720319       -1.89860311978453        0.49234744243630
O           -4.81249528796171       -3.15857738750623        0.39837125239877
C           -4.57587883869223       -4.06170501887355        1.44737577367066
C           -3.49791554371288       -1.42782091450787        1.51113564941573
C           -3.03596146940047       -0.11664305190897        1.50315439025360
C           -2.13031676582611        2.47890496834206       -0.88240482121050
C           -1.14786108116281        1.38901455463373       -1.35126062980175
C            0.13206195672788        1.38201089333467       -0.58285610622501
N            0.81000927623729        0.30844279326309       -0.20535325222766
C            1.98875677351417        0.36377930962177        0.40563084582337
C            3.38451154492887       -1.39196843854967       -2.20064384954712
C            4.54410405688504       -1.06031858812684       -1.52775168110923
C            5.18744669162590        0.19637081967487       -1.69234281289468
C            6.34582482810541        0.50981717031331       -1.02242453803146
C            6.92242841597559       -0.39530865506905       -0.13741404681611
O            8.03667377360049       -0.17166668265981        0.61022906980789
C            8.69588275387732        1.06053136451431        0.48733255036858
C            6.32188413309011       -1.67094435265742        0.03289021543646
O            6.97494916547340       -2.48827403703072        0.91234889759787
C            6.50967464664948       -3.79684928068549        1.10143981689098
C            5.17331289432924       -1.98446109434527       -0.64494086029371
C            0.21519443919468       -1.00144536216847       -0.44899101074435
C           -4.10883736928576        3.12150591120961        0.57691972550017
C           -4.90239804094520        2.83910621298089        1.85265000043035
C           -3.75857768526199        4.60723426537668        0.51414829394629
H           -4.43852235157190        0.93554000317401       -1.36293204612856
H           -6.52199719803998        0.13975334042754       -2.09624062005842
H           -6.66518115990144       -1.32702579473774       -3.09453887918578
H           -5.18510085601820       -0.34488057659556       -3.17797056169936
H           -4.97560296434070       -3.69120940014864        2.39721161991055
H           -5.10066636725771       -4.97405839614905        1.16908845770794
H           -3.50946864337021       -4.28330024439724        1.56024902934228
H           -3.22343150218800       -2.06974939765450        2.33321644055507
H           -2.43213123604422        0.22101969742235        2.33071799875738
H           -2.88227822077242        2.61458596433512       -1.66124687573586
H           -1.59118863237371        3.42225148408689       -0.78970209110330
H           -1.65006956101588        0.42141696202254       -1.32479764412444
H           -0.93233224634987        1.60432741861408       -2.40782974730687
H           -0.94431124371905        1.81925613561689        1.42925316561497
H            0.62978128608572        2.32338611206168       -0.42481290657990
H            2.43399645439429       -0.52353504756000        0.79818812753536
H            2.42117551130180        1.31599711186938        0.64766656143451
H            2.94799073084953       -0.70275241686753       -2.90291197967452
H            2.93325595577759       -2.36701074173231       -2.11954741415462
H            4.74502737229699        0.91727236053537       -2.36185319252649
H            6.79198111951517        1.48099619008610       -1.17237682234564
H            8.05324133975046        1.89472481316130        0.78309433361560
H            9.05548507467389        1.23230860421917       -0.53110702352910
H            9.54182453635956        1.01151120094563        1.16892068491159
H            7.19753666516526       -4.24635323699561        1.81896859079375
H            5.49572763840865       -3.82253588730796        1.50943707963289
H            6.52941103276657       -4.37280374209832        0.17029631587459
H            4.70728661341479       -2.94935702075279       -0.52884998360238
H            0.11136466329236       -1.18021934096404       -1.52086259961864
H           -0.76868098993437       -1.07159306207049        0.01982095741501
H            0.85862535164185       -1.77178189552317       -0.03416644869901
H           -4.76107453323189        2.89508488124722       -0.27591660125822
H           -4.31459014642753        3.11508662418307        2.72039597911015
H           -5.16921863615849        1.78716390924918        1.92331022833715
H           -5.81975621899733        3.42367631185300        1.85346722360420
H           -3.08478779836282        4.86455796089539        1.32345568376461
H           -3.30160187723322        4.87377018099359       -0.43475456576102
H           -4.66566488851541        5.19693091649298        0.62492315692668
H           -1.27014018589970        3.24354364860696        3.17616179597283
