72
 energy: 35.127270187627 xtb: 6.6.1 (8d0f1dd)
N           -1.83115524547853        3.03352151137603        2.42207324726616
C           -1.74260272360938        2.30597820875960        1.40617215404827
C           -2.82491917960322        2.14225806817216        0.37597298748609
C           -3.34145138211226        0.71146517753489        0.41943795466562
C           -4.22246450654718        0.26192243888198       -0.56482247346102
C           -4.72841987668769       -1.02429872526341       -0.55006614164582
O           -5.60107857826840       -1.53484454965650       -1.46363485366928
C           -6.13428563447192       -0.67624762863595       -2.43940954781830
C           -4.33899419759462       -1.91671312516104        0.47397948381812
O           -4.87799815201326       -3.16503836058643        0.40046800581651
C           -4.60682542872739       -4.07757485406388        1.43306942505222
C           -3.46669308107434       -1.47077084249113        1.44785575793598
C           -2.97764164348106       -0.16957246059470        1.42084894681059
C           -2.15419021665811        2.41325474327967       -0.99448558789923
C           -1.18337411580436        1.31392407293227       -1.46773327195903
C            0.09858188731725        1.27696557171990       -0.69205865855731
N            0.77748712829118        0.18288453733944       -0.32819821409798
C            2.04924550973903        0.21071093394100        0.12275238506763
C            3.20544553602874       -1.09322174414768       -1.84702688400539
C            4.45888171856110       -0.83510866583825       -1.27884031300742
C            5.13489031210956        0.39243016389254       -1.45528405654132
C            6.35824747170652        0.63118593740032       -0.86898499550510
C            6.95194812075352       -0.32983618452862       -0.06326020318036
O            8.13592306883795       -0.18565627426722        0.59460105438555
C            8.83873777722679        1.01513187579288        0.42972600724380
C            6.30465734743018       -1.57333125666117        0.12488314461876
O            6.98162734112415       -2.45481589796520        0.92284400127045
C            6.44100321334757       -3.73251762692838        1.11924360397236
C            5.08956434501273       -1.80716993418028       -0.46785002744555
C            0.12994839981585       -1.11216841380846       -0.51296435599240
C           -4.02335190569427        3.10763420544868        0.57904250351713
C           -4.75427331720034        2.82099415069057        1.88984942508002
C           -3.62434605724745        4.58061919510731        0.52568016976088
H           -4.52084169253273        0.93645061658530       -1.35030135749197
H           -6.64407082817699        0.18259008823401       -1.98987165901479
H           -6.85724136263352       -1.27476839650685       -2.99170083915664
H           -5.36320845251234       -0.31883925792513       -3.12968467993596
H           -4.94086835599459       -3.69950109554334        2.40544365457552
H           -5.17081721780961       -4.97522148600246        1.18409352887391
H           -3.54161400737599       -4.32710656935417        1.48349749176700
H           -3.16214520246546       -2.12443658868363        2.24983750680626
H           -2.32005316728105        0.15137866522372        2.21397200258777
H           -2.93996925037368        2.53136939528958       -1.74368944242813
H           -1.61498176978811        3.35936142100090       -0.94184229687769
H           -1.69887213958779        0.35378908942689       -1.44095181744538
H           -0.96367254560363        1.53274268821978       -2.52271097188996
H           -0.83963963818873        1.74815556622380        1.13934448896784
H            0.64880828508720        2.20829122920787       -0.62052782379322
H            2.40182988547562       -0.63488970396960        0.68545477344916
H            2.50538910782379        1.16274774367450        0.38105255064907
H            2.84915973474662       -0.43552626830463       -2.61299944440636
H            2.80498026680685       -2.09570349862703       -1.85968777312863
H            4.68539129145346        1.15561747895715       -2.07199484615244
H            6.84214516176452        1.58161060275947       -1.03177074058584
H            8.27282270626666        1.87349422768278        0.80281279080270
H            9.10358672288772        1.19419759396985       -0.61620523989404
H            9.74209921299192        0.90623601770351        1.02432780716152
H            7.15432552691543       -4.25537393375048        1.75468014711794
H            5.46958515361771       -3.70495890836819        1.62040645714716
H            6.33563204299305       -4.27765031016299        0.17476490734003
H            4.58503906676527       -2.75113613611781       -0.33886026445310
H            0.00059120863902       -1.33858514400319       -1.57598496624039
H           -0.85153744372878       -1.13083533611920       -0.03249072136790
H            0.75430229201235       -1.88188972396872       -0.06961587277415
H           -4.72420640308431        2.92367641837625       -0.24289972552745
H           -4.10458873943587        3.04386235552375        2.72741270552360
H           -5.06087012493946        1.77908342236387        1.94593336621705
H           -5.64233804758972        3.44558587207193        1.96359308144785
H           -2.90364123749691        4.79845842356955        1.30492584702389
H           -3.20580701018216        4.84981704883016       -0.44041615749663
H           -4.50269837584590        5.20001642541427        0.69342313475473
H           -1.01161516259493        3.06534119325849        3.02245817083194
