72
 energy: 35.245396042547 xtb: 6.6.1 (8d0f1dd)
N           -2.04805720869870        3.17663617831756        2.52444516481177
C           -1.86664717135675        2.40585594906626        1.55116074560969
C           -2.87544652191553        2.19622933914415        0.45263328163942
C           -3.35508416548156        0.75199281579269        0.47604416948578
C           -4.16799413957231        0.27538405696789       -0.55583625332030
C           -4.64791911329144       -1.02028530734615       -0.55934686611119
O           -5.46012987956952       -1.55272620701695       -1.51526030401307
C           -5.96574746090789       -0.71085422518322       -2.52016110765764
C           -4.29871246495712       -1.89746464108318        0.49285875586396
O           -4.80858695280871       -3.15705409152551        0.39870576143825
C           -4.57396654090333       -4.06048366656605        1.44847635222987
C           -3.49601176183015       -1.42486258080719        1.51394293066272
C           -3.03566139993085       -0.11261510287103        1.50695327623618
C           -2.14020511034979        2.48529375541061       -0.88550524220728
C           -1.15783110672045        1.39721432663508       -1.35268468966638
C            0.11593833913357        1.39627572130110       -0.58021676158658
N            0.78094286410344        0.32525211468769       -0.16857229721724
C            1.92138916865425        0.37494845946005        0.50599359507976
C            3.45893693864448       -1.44287133364508       -2.30512812548929
C            4.58458187468012       -1.10336840660320       -1.59055881204728
C            5.19547501570303        0.17041322592695       -1.73244119059317
C            6.32495682210948        0.50592420222853       -1.02635270938889
C            6.90769713084469       -0.39723275235651       -0.14086035493357
O            8.02607493614595       -0.17196621375235        0.60203353334831
C            8.68299455747795        1.06338439973516        0.49039910115858
C            6.31776291730756       -1.68076839433841        0.02826514796148
O            6.97022686199941       -2.48557677396157        0.91794585892190
C            6.50874125453636       -3.79741796122113        1.10551474344264
C            5.19229050766649       -2.01580291749651       -0.67648647745928
C            0.22035020141786       -0.98897171025953       -0.43354735319942
C           -4.12031299019517        3.12194434788412        0.57361657365644
C           -4.91893590595263        2.83374062950537        1.84412831598805
C           -3.77355965710245        4.60865466024789        0.51519356476901
H           -4.43257895594108        0.93643754555876       -1.36484473770025
H           -6.51251244937028        0.13916853706686       -2.09821511152586
H           -6.65293267561773       -1.32763286891189       -3.09785127513215
H           -5.17305575189421       -0.34248002667925       -3.18074012349645
H           -4.97317491380839       -3.68970433443802        2.39857308467145
H           -5.10040191161577       -4.97198013266893        1.16886343731595
H           -3.50739934390348       -4.28199291568986        1.56492444033622
H           -3.22633736198202       -2.06518299363888        2.33923947895626
H           -2.43572745666250        0.22624338108395        2.33748749787025
H           -2.89115308044874        2.62158554518604       -1.66577415782223
H           -1.59578973119195        3.42583592305490       -0.78733273690451
H           -1.65410532772301        0.42865592727709       -1.31263972083264
H           -0.93661445043745        1.60596660586202       -2.41015306151016
H           -0.94065903614745        1.83817370423207        1.38161312305996
H            0.59871640598152        2.34762564889160       -0.42164919985767
H            2.43939176672906       -0.52277565019361        0.76550358172617
H            2.37380075013260        1.32723407318701        0.70032742214802
H            3.00978066272416       -0.74924705244834       -2.99233804688135
H            3.00064805053106       -2.41062798552291       -2.20676053916590
H            4.75717827971058        0.87992351051450       -2.41807007969098
H            6.76500477210558        1.48166594671249       -1.16776906453374
H            8.03792287265128        1.89555864693952        0.79304471965960
H            9.04781224384015        1.23910790746324       -0.52765828710677
H            9.53263377375785        1.00260791740589        1.16999050299819
H            7.19946941508121       -4.24954661404450        1.81647572885051
H            5.49638974910534       -3.81687486414523        1.52427836134492
H            6.52514524182908       -4.36985592078764        0.17159086460428
H            4.73717618265687       -2.98799482758481       -0.56367580917600
H            0.12839427960328       -1.14610503429186       -1.50824049501485
H           -0.76534316815934       -1.08494612610457        0.02598219192936
H            0.87601983881760       -1.75325861786013       -0.02422806913088
H           -4.76468117354791        2.89431946875688       -0.28430849855675
H           -4.33632894370142        3.11073822347532        2.71628696820415
H           -5.17715464854092        1.77955328509053        1.91227790684783
H           -5.83937770174872        3.41367363166383        1.83796441618368
H           -3.10406568717615        4.86783321759944        1.32893331304674
H           -3.30904775345599        4.87738599690006       -0.42998027962403
H           -4.68456657881424        5.19401430159009        0.61884720128979
H           -1.27812682942607        3.24736596018219        3.18715905334196
