72
 energy: 35.682790611500 xtb: 6.6.1 (8d0f1dd)
N           -1.89141239127397        3.07617508066266        2.45008073282995
C           -1.77663678331923        2.33208020525752        1.44856458220830
C           -2.83784380444148        2.15614356382793        0.39791076439685
C           -3.34611323781114        0.72228996360524        0.43517174483718
C           -4.20837321554448        0.26503134062837       -0.56234692724805
C           -4.70788173663442       -1.02381694258993       -0.55241333646980
O           -5.56419621662900       -1.54108107948662       -1.47805838525486
C           -6.09026053638378       -0.68745126680452       -2.46204470736825
C           -4.32927117398800       -1.91180835370088        0.47943766752692
O           -4.85954915114980       -3.16373484557794        0.39998029240160
C           -4.59812482822935       -4.07351151960017        1.43735527477656
C           -3.47559045848481       -1.45865690599979        1.46629271211839
C           -2.99440261712117       -0.15452779817815        1.44452290005320
C           -2.14689241604345        2.43163356903466       -0.96224875345769
C           -1.17111040386615        1.33519943857218       -1.43358510719680
C            0.11187898608381        1.30507822932068       -0.65827304044049
N            0.79263658273559        0.21810678817266       -0.28752752955426
C            2.03782582308515        0.26153885244433        0.20893690651323
C            3.25935436561315       -1.18628267497248       -1.95278265270282
C            4.47992690314243       -0.90080670018260       -1.34967203601850
C            5.14849889434603        0.33605287518460       -1.52315204516419
C            6.35477417219188        0.59597053636631       -0.91374043182844
C            6.94422517349125       -0.34916611028853       -0.08426242819223
O            8.10800629188354       -0.18132228440551        0.60064634880786
C            8.79817362172881        1.02870719238233        0.44647073232859
C            6.30983321449925       -1.60224622736693        0.09843248382262
O            6.98258668156063       -2.46614384529541        0.91779567984514
C            6.46119508143694       -3.75188321279304        1.11341495491566
C            5.11244619952756       -1.85892955857465       -0.51775688825977
C            0.15698186422449       -1.08052102183644       -0.49385276331619
C           -4.04823506431801        3.11233999441716        0.57871007423689
C           -4.79678922452598        2.82869801463318        1.88051683961177
C           -3.66249449361321        4.58890656605610        0.52135992279140
H           -4.49745169855196        0.93567639597447       -1.35455562795878
H           -6.61013745761722        0.16967302087611       -2.02084344274113
H           -6.80358754178875       -1.29048121852492       -3.02204725882896
H           -5.31288633779975       -0.32769293956336       -3.14393931045393
H           -4.95114724720118       -3.69773147859749        2.40383708867201
H           -5.15103043666742       -4.97552908315670        1.17971948312308
H           -3.53212245833658       -4.31506138511174        1.50541209991632
H           -3.17935841289251       -2.10894153396325        2.27412314695893
H           -2.35155758718843        0.17158248596429        2.24740862467000
H           -2.92339703123092        2.55537840772042       -1.72015865474737
H           -1.60798277364273        3.37712326989676       -0.89782176018828
H           -1.68354366434983        0.37316690236864       -1.40772453221332
H           -0.95442732937130        1.55410669028969       -2.48952532759871
H           -0.86842477198339        1.76789467524598        1.22195167081460
H            0.64638487134607        2.24152719265426       -0.56415330937219
H            2.43141937422245       -0.60509859241618        0.70850054429110
H            2.48941866045904        1.21253929387489        0.45961387471400
H            2.87302734129710       -0.51462533649548       -2.69196748491628
H            2.83833005749332       -2.17829168845400       -1.93238101025594
H            4.70015630791584        1.08678763830259       -2.15520795616640
H            6.82857911627917        1.55217281335077       -1.07293961094259
H            8.20940604373640        1.88079251665662        0.79690893842641
H            9.08931614603561        1.20479837858448       -0.59257032407629
H            9.68639234951191        0.93847493799308        1.06642877313001
H            7.16900818070326       -4.25491262793555        1.77136093098959
H            5.47713235605011       -3.73841944468729        1.58945431630671
H            6.38973316652112       -4.30656543958527        0.17152830263043
H            4.61804005900782       -2.80840359091541       -0.39263958596659
H            0.03496325440754       -1.29162798652112       -1.56104367138775
H           -0.82627025987731       -1.11303852583598       -0.01772314107934
H            0.78533201246300       -1.85184893230415       -0.05931188149103
H           -4.73662288163687        2.91642145526393       -0.25143341800423
H           -4.16349235431346        3.06722398371880        2.72639550301746
H           -5.09205744993524        1.78378196073991        1.94148821714171
H           -5.69396493648794        3.44238653641140        1.93367564644385
H           -2.95465230577569        4.81829738262607        1.30906906668885
H           -3.23325848512864        4.85597019227914       -0.44053982726624
H           -4.54894850758479        5.20079106050725        0.67309037603693
H           -1.08488750180429        3.11596859595222        3.06793635209374
