72
 energy: 6.427093004661 xtb: 6.6.1 (8d0f1dd)
N           -1.68336859619781        2.92969564036410        2.34520141886464
C           -1.65810613793878        2.23677204313358        1.29925401520408
C           -2.79052667946931        2.10739192358888        0.32060410793887
C           -3.32998582795262        0.68527181310933        0.37945884300778
C           -4.25777727454455        0.25559114783158       -0.56989771586106
C           -4.77978878073100       -1.02346735638913       -0.54229551265977
O           -5.69397525053043       -1.51693980284106       -1.42453813982446
C           -6.24390972966352       -0.64720149509453       -2.37997000222833
C           -4.36390282443978       -1.92714910815688        0.46025390694175
O           -4.92597103899055       -3.16724709270178        0.40253643736783
C           -4.63040269847761       -4.08617468158908        1.42225731487635
C           -3.44752481599188       -1.50005447737621        1.40148618759261
C           -2.93900348628899       -0.20671403141878        1.36103855432682
C           -2.16994949355107        2.36636499358980       -1.07536913711603
C           -1.20982501051496        1.26104606732402       -1.55393640592988
C            0.06512456992007        1.22300572584266       -0.77643394959462
N            0.73576415006462        0.06710573676221       -0.42221771399650
C            2.14176802551675        0.01015828456562       -0.16287884299803
C            3.00204851950520       -0.78692287074238       -1.49191240134145
C            4.42038515164870       -0.65534221196857       -1.08561599649644
C            5.10782375565394        0.53390249346634       -1.28546602555166
C            6.37539103805469        0.71858598076050       -0.75935671639421
C            6.97369715868641       -0.28019642330055       -0.01248073229017
O            8.19999527886233       -0.19644790162699        0.57442575552800
C            8.93974151189408        0.98152671802613        0.38958904247655
C            6.29405181570723       -1.50091660767683        0.18733479476238
O            6.97194876388966       -2.42418865668730        0.92981949804809
C            6.38865851541438       -3.68394671312055        1.13299519125871
C            5.03297723758777       -1.67131397725867       -0.34773732418545
C            0.05500178791588       -1.19895045415795       -0.55499440144829
C           -3.95938656130844        3.09429794233627        0.58011057861442
C           -4.64807364491050        2.79942830531428        1.91106649654069
C           -3.52943271112453        4.55880705622854        0.53788742115281
H           -4.58002089896356        0.94023474443347       -1.33714335263629
H           -6.72917414126764        0.21556709549495       -1.91133836855644
H           -6.99005754400187       -1.23559437505503       -2.91162280015735
H           -5.48963231174963       -0.29566196540317       -3.09187242226807
H           -4.91644386500403       -3.70332845201402        2.40814942791462
H           -5.22134788859779       -4.97227925016058        1.19529822192277
H           -3.56872607444914       -4.35587317619299        1.42953373047919
H           -3.12235601788243       -2.16267370324360        2.18807963407822
H           -2.24543167685299        0.10023998801680        2.12883399070125
H           -2.97611048222163        2.47137884685543       -1.80433484400399
H           -1.62815806418631        3.31253557003326       -1.05056025624144
H           -1.73446338730418        0.30516238795372       -1.52184664046457
H           -0.98747693731337        1.47622390913504       -2.60964018302806
H           -0.76734416317852        1.70153885603311        0.92823262025738
H            0.66420642101574        2.12293987554177       -0.76650264934315
H            2.29731859274029       -0.65581489749388        0.69186892440676
H            2.52956730377527        1.00292538503439        0.16472024153462
H            2.80271805783144       -0.23031738475538       -2.40735955035679
H            2.72602298433608       -1.84175957868463       -1.66882791030623
H            4.65544497166070        1.32898643964688       -1.85960805444441
H            6.88061730639062        1.65529149413281       -0.93002360642105
H            8.43158967283275        1.85110425232447        0.81793202448146
H            9.14523812959755        1.17336739323483       -0.66888988906357
H            9.87534706045587        0.82162178269789        0.92127184736252
H            7.11484909506716       -4.24998685226703        1.71350667664530
H            5.45171357419948       -3.62258338189284        1.69488800554849
H            6.20365045127835       -4.20314154840144        0.18607252147490
H            4.50230345004059       -2.60005321662226       -0.20234180818200
H           -0.09697619259711       -1.46350299928519       -1.60686269265957
H           -0.92032628507387       -1.17831468278809       -0.05841945173808
H            0.66918002153356       -1.96402701179820       -0.08668093515923
H           -4.69153332031580        2.93934511664386       -0.21983360872096
H           -3.96090445911167        2.98121779065351        2.72839920920434
H           -4.98438961453152        1.76610380052952        1.95469415165136
H           -5.51142769453853        3.44980298271525        2.03269415869816
H           -2.77801991435228        4.74852672327462        1.29606770379750
H           -3.13724609723250        4.83573375251477       -0.43724543101692
H           -4.38852896758800        5.19340225655084        0.74419188205296
H           -0.83307380459184        2.94031094238265        2.90249216319875
