72
 energy: 35.714014058536 xtb: 6.6.1 (8d0f1dd)
N           -1.98123855720385        3.14009093203322        2.48982964106532
C           -1.82749160274317        2.37204698390742        1.51126726379223
C           -2.85606471593047        2.17717792754225        0.43069287161265
C           -3.35190236207462        0.73874628687000        0.45867327219495
C           -4.18651768503809        0.27050708315960       -0.55810828332732
C           -4.67650890833687       -1.02201375438078       -0.55553612936658
O           -5.50791448340313       -1.54854084056193       -1.49866321499772
C           -6.02274495902228       -0.70232478376575       -2.49488018893278
C           -4.31391814073199       -1.90398949413809        0.48723476439053
O           -4.83143855688847       -3.16084980980832        0.39915882997011
C           -4.58470545696145       -4.06659989272123        1.44352043827416
C           -3.48875708375467       -1.44020725454931        1.49332309698438
C           -3.01919531898167       -0.13178838262637        1.47973202245228
C           -2.13586736251248        2.45976699431637       -0.91422608313853
C           -1.15384867271845        1.36820752504154       -1.38450792708013
C            0.13317068180756        1.35083575610915       -0.61793884662171
N            0.80817360371715        0.27233039593782       -0.23657385190139
C            2.01451892271812        0.32722742313387        0.32722778494823
C            3.33369398503649       -1.31358235747883       -2.10134270268320
C            4.51700834490266       -0.99696689359392       -1.45643015640214
C            5.17142563571348        0.25199947863999       -1.62475029013157
C            6.35045696048835        0.54376609119183       -0.97967646716576
C            6.93233019663137       -0.37743532261288       -0.11625523239232
O            8.06565293689976       -0.17530822031971        0.60792882185891
C            8.73706901566654        1.04827757637972        0.47175559155081
C            6.31788955937678       -1.64420644414369        0.05814298335569
O            6.98083956448987       -2.48225488767784        0.91069040893815
C            6.49060774526876       -3.78007476185185        1.10556548441740
C            5.14848714822193       -1.93442147377521       -0.59454803798153
C            0.19295963731529       -1.03223161998672       -0.46564397885071
C           -4.08485776054992        3.11821480311944        0.57777322881891
C           -4.86042533330770        2.83586716360268        1.86436967813449
C           -3.72010552431340        4.60027146208682        0.51672011840719
H           -4.46230512259664        0.93542797627776       -1.35985135657928
H           -6.55773252940486        0.15161830783525       -2.06611259728604
H           -6.72118220663532       -1.31246416805257       -3.06591149444160
H           -5.23649138527225       -0.33841825818722       -3.16439791746443
H           -4.96572967901660       -3.69405234953546        2.40035212842200
H           -5.12079152145250       -4.97496381950658        1.17349292382873
H           -3.51819326574297       -4.29616592463252        1.53830225763142
H           -3.20539221285591       -2.08545301025341        2.30976975697738
H           -2.39944628666699        0.20147845321445        2.29744765033042
H           -2.89813168097125        2.59102909370344       -1.68483080494096
H           -1.59751392592663        3.40425783169874       -0.83243242936309
H           -1.66104422182132        0.40296930708746       -1.35814548102515
H           -0.94172362189908        1.58545830008885       -2.44157797167009
H           -0.91280644879865        1.79866744457639        1.34610448683305
H            0.64243494213396        2.29157813451583       -0.48143717758064
H            2.43600563829855       -0.55498356992485        0.76237690391003
H            2.45365533408913        1.27832747236413        0.57443914633018
H            2.91593235868090       -0.63013462710472       -2.81681131148475
H            2.89199613613244       -2.29500760688608       -2.04238166901279
H            4.72590346836315        0.98454495321311       -2.27947688158317
H            6.80820045852717        1.50875248980887       -1.13374135547795
H            8.11491448216528        1.88961265244971        0.78932667913309
H            9.06892420355707        1.22110449423969       -0.55563865773925
H            9.60066370156993        0.98398649120626        1.12896416168845
H            7.18756157370852       -4.25101329727297        1.79932262162067
H            5.48845632108481       -3.78846059573269        1.54216171569892
H            6.47285343817501       -4.34882484922221        0.16996123502955
H            4.67053989059039       -2.89297768531564       -0.47531795230587
H            0.08182925112796       -1.22387551222171       -1.53624763498557
H           -0.79131365465685       -1.08607650261694        0.00561906248045
H            0.82939502130435       -1.80428218757533       -0.04401428746177
H           -4.75240344529769        2.90416793675097       -0.26570126507287
H           -4.25380262516178        3.09675401005634        2.72337898614211
H           -5.13853158848660        1.78659559709798        1.93103398645985
H           -5.77017947286608        3.43235901460020        1.88648576401614
H           -3.03236970817385        4.84626578638598        1.31745182257060
H           -3.27432406296555        4.86630549673870       -0.43775768047439
H           -4.61892376285488        5.19946064574472        0.64407320158356
H           -1.19583617906057        3.19216379150073        3.13419021951318
