72
 energy: -99.306461764124 gnorm: 0.005510194837 xtb: 6.6.1 (8d0f1dd)
N           -1.88839502228448        3.03655662543650        2.20049624976224
C           -1.84307421246524        2.21546309886760        1.25690817053824
C           -2.96470574379599        1.99498516552663        0.27828691291901
C           -3.46818756656755        0.56063864505599        0.39470620557759
C           -4.27953006082776        0.03640481711274       -0.64003993133592
C           -4.82076957913869       -1.24648593889987       -0.55820058254703
O           -5.59836336261135       -1.81542261263077       -1.51517506835243
C           -5.96591533959092       -1.05519252358710       -2.64183852525939
C           -4.58051020903619       -2.04596467586219        0.55980585177157
O           -5.15072525363204       -3.26334978263212        0.56910221700353
C           -5.02712943318467       -4.08983392016714        1.70156945211983
C           -3.73936268921200       -1.56415199804037        1.69294948943551
C           -3.19723588439829       -0.18968421448299        1.49019922942624
C           -2.37582873782310        2.28380052952068       -1.12458892061246
C           -1.45429597564252        1.17991567590331       -1.67216612014568
C           -0.13210856898337        1.13276445102265       -1.01011568859575
N            0.49219853543219        0.02437270945834       -0.60907836554416
C            1.88181031351069        0.07306812037616       -0.22366650458211
C            2.81410782475438       -0.35159125117451       -1.37573344258970
C            4.24580299051692       -0.14629755209825       -0.96834422775733
C            4.86620516927363        1.07443888835327       -1.17252571466451
C            6.17276430086524        1.28484338424680       -0.75878927070217
C            6.88364019072867        0.27612799990169       -0.12631807525857
O            8.15140661500069        0.37055352298586        0.32221827059159
C            8.84850657020456        1.58275074245201        0.15188856517585
C            6.25672381340582       -0.98155747520985        0.08429642990025
O            7.02232244137535       -1.90856288160372        0.69872864247770
C            6.49731976852225       -3.19485896794349        0.92059281647432
C            4.94972120489018       -1.16821768005349       -0.33519357920593
C           -0.13722119663479       -1.27148347462851       -0.67635018371945
C           -4.20282939580646        2.90379550234816        0.53318727865509
C           -4.81905905355933        2.63347311776346        1.84200919397869
C           -3.88273066799742        4.41258268010478        0.42781429182897
H           -4.50464371248432        0.64713791856777       -1.49553318876703
H           -6.52468286944462       -0.15804914252377       -2.35813064629860
H           -6.60888623651498       -1.70536273288222       -3.23195802068140
H           -5.09474561166081       -0.77166363301074       -3.24169058347968
H           -5.46109785976551       -3.62269117554337        2.59061971132013
H           -5.58238651923509       -4.99573376198363        1.46598079194052
H           -3.98330460044901       -4.34836783229518        1.90424730927840
H           -2.90126259846446       -2.26740950995418        1.84675943556687
H           -2.60055338134116        0.19990341819350        2.30014198511901
H           -3.19496194872205        2.42394500381085       -1.82976557421969
H           -1.81889123270258        3.22075496634674       -1.08020253759021
H           -1.96361937659930        0.21921459092869       -1.62051013796758
H           -1.28502578478060        1.40906088809994       -2.73289468709442
H           -0.96073705094399        1.59725194435164        1.01539100348385
H            0.43243650148618        2.05025260549775       -0.95003949561999
H            2.04173123571644       -0.58393956048185        0.63534744995888
H            2.13555867415220        1.09229958008126        0.07480117770908
H            2.58515509351432        0.25794308654997       -2.25168647674978
H            2.63595696212291       -1.39811864958059       -1.62562539170343
H            4.33665547326697        1.87366962284344       -1.66878949074225
H            6.63089746661385        2.24343119891491       -0.93867598677963
H            8.35095164706985        2.40775245981190        0.67119052516811
H            8.96386423588855        1.83375602639805       -0.90692795960172
H            9.83006255985923        1.41932316510932        0.59260794670510
H            7.29567166336327       -3.75736361587543        1.40083211324819
H            5.62726453957547       -3.16507005793482        1.58486508466964
H            6.22429152940386       -3.68529978863104       -0.01915282056812
H            4.46584245497473       -2.12054795797596       -0.18402169726942
H           -0.27135814409733       -1.59830737771343       -1.71052930667879
H           -1.11432835785964       -1.24202551865465       -0.18901395694113
H            0.48708092734988       -1.99861261876702       -0.16259081484848
H           -4.93580006197737        2.68207322593506       -0.25262438405984
H           -4.20847000618788        2.42285732101419        2.69577680614208
H           -4.30727339916591       -1.59597194000933        2.63166811158105
H           -5.86079746980475        2.84355056814000        1.99021630690258
H           -3.10665228536518        4.67272917592265        1.13923909978636
H           -3.56684351957932        4.67289056699451       -0.57836769372352
H           -4.77668455214939        4.98329709864532        0.66364668691896
H           -1.05845057335125        3.12169923674306        2.78002908172250
