25
 energy: -42.154068894571 gnorm: 0.005208295533 xtb: 6.6.1 (8d0f1dd)
C            3.12068401024865        1.19828806894791        0.16914285634847
N            2.14747796854474        0.14101890636210        0.09023874141181
C            2.39830306199652       -1.13216268557911       -0.19026105056438
N            1.24013080862288       -1.81731332933063       -0.20798546278432
C            0.22204884436932       -0.94574567401880        0.07621748972357
C            0.80393190199510        0.28654181918618        0.28246347933160
C            0.09100654695079        1.56467602420127        0.61972184306759
O            0.42051788001774        2.63295386169987        0.12776013931164
N           -1.52963241246104        1.04048545081867       -0.17900692503360
C           -2.17555238075738        2.01036071576061       -0.69718277580068
C           -2.07164300551625       -0.26064534218818       -0.09445228564961
O           -3.24233723597123       -0.50469129983784       -0.17339625598167
N           -1.10960516771306       -1.24987509177407        0.07535951752080
C           -1.54037730548953       -2.63616091047098        0.11910905847098
H            3.50557896804876        1.28818071454317        1.18629235870688
H            3.94603668711153        0.98966162482522       -0.50756463894961
H            2.64208271637663        2.13929226717183       -0.10458614121694
H            3.36743648287241       -1.55299069475413       -0.37246251446932
H           -1.67898943834432        2.97309899906704       -0.71082748595422
H           -3.16924371815661        1.89409405850366       -1.11090401592504
H           -0.37305011847649        1.50738313688950        1.62892906199195
H           -1.05623029363342       -3.15288158291568        0.94719261207379
H           -1.32657298336181       -3.14616678040326       -0.82229742936948
H           -2.61828478374701       -2.64336574646923        0.27468200771956
H            1.14671448057220       -2.80579796863487       -0.39501056608152
