25
 energy: -42.079459330133 gnorm: 0.006714617242 xtb: 6.6.1 (8d0f1dd)
C            3.08143925537104        0.99515459121942        0.75341552407553
N            2.44749570005757        0.21979404347707       -0.28642731896295
C            3.05784305007441       -0.16514815197159       -1.31452034979398
N            1.23892762589248       -2.27936913491275        0.22991677182637
C            0.47167692647595       -1.26666376845562        0.06452492563974
C            1.03196189654964        0.02540755408685       -0.16630336093484
C            0.22115275234120        1.21066292468623       -0.28658138942352
O            0.68449407025761        2.32547080745513       -0.45010394817028
N           -1.14769110976047        0.99753432136565       -0.19943278417896
C           -2.03360045522350        2.13447405239910       -0.33093497844824
C           -1.75118361398303       -0.23410051949280       -0.01629016776252
O           -2.95109730463131       -0.33705455880487        0.02068310711976
N           -0.91565881127100       -1.33025002603481        0.13219049870573
C           -1.55135441073046       -2.61323266391646        0.36616733566060
H            2.83373580399325        0.57910681968719        1.73169383596858
H            4.16034076849621        0.99191437956669        0.60309856789362
H            2.71307160394530        2.02462925282108        0.70043232287599
H            2.67840242465751       -0.72093598472249       -2.15278058788677
H           -1.42864451058527        3.03776697220103       -0.38453493493250
H           -2.64014142623180        2.03477521188018       -1.23397768040550
H           -2.71402619063154        2.17348371808190        0.52145350690911
H           -1.26186192277765       -3.01460074509111        1.34062907182663
H           -1.28418081027742       -3.32317221970382       -0.41985631548246
H           -2.63081832923812       -2.45987737106495        0.35471300539940
H            0.85014853132813       -3.18753096315663        0.45399696038185
