72
 energy: -5.409728719138 xtb: 6.6.1 (8d0f1dd)
N           -1.51328371199392        2.71093090349358        2.30039574536587
C           -1.56878725135704        2.13994686839208        1.18156934651193
C           -2.76801323726281        2.06348485472038        0.27271630555000
C           -3.32293665448104        0.63757988841291        0.35368666966540
C           -4.29101114694560        0.22464173035526       -0.56651103993406
C           -4.83988129514810       -1.04262336293708       -0.52543148110954
O           -5.80629270511746       -1.51006663853442       -1.36540489293865
C           -6.37022394307117       -0.62977826437371       -2.30299185380478
C           -4.40452119877065       -1.96210749530727        0.45463609625377
O           -5.00672311871610       -3.18325274975140        0.42011132814550
C           -4.69197487549904       -4.11581580465522        1.42180551461170
C           -3.43314735490507       -1.56357297700248        1.35184405249368
C           -2.89621873835028       -0.28080237137257        1.29814999579035
C           -2.20332371911060        2.29245365376825       -1.16336050529175
C           -1.26525410488809        1.18412493846109       -1.67512697333671
C            0.01124097940822        1.13701980320557       -0.91789187089613
N            0.64131876672788       -0.04220398414784       -0.57492706862086
C            2.00984314320713       -0.02696062182625       -0.17501612849692
C            2.94303713712645       -0.54203718090748       -1.28914725121636
C            4.36575915043894       -0.43407533197591       -0.84518121952345
C            5.08202482110378        0.73087460649909       -1.04724424682036
C            6.39206080751225        0.84301924492564       -0.60505608881896
C            7.00224863850546       -0.20831936701352        0.05535326471993
O            8.28002425923728       -0.21101621042900        0.52830991771077
C            9.07158194204892        0.93007607094658        0.32247311838619
C            6.27493470156002       -1.39974909727836        0.27693290453547
O            6.95639897706221       -2.38308832559074        0.92991823367072
C            6.31802888147077       -3.61405149747225        1.14922910381502
C            4.97078656187962       -1.49325351396187       -0.16850039615013
C           -0.04417042803922       -1.29940594141486       -0.62750278361812
C           -3.88144137129352        3.13114310768341        0.57501167853694
C           -4.51592174909316        2.81342400252228        1.92490378913982
C           -3.38645193811110        4.57729381310062        0.55691794280343
H           -4.63322359750161        0.91979000519732       -1.31614595967172
H           -6.81972156434978        0.24402489021266       -1.81906463926556
H           -7.14811283053356       -1.20214012240203       -2.80617802673060
H           -5.63395733059099       -0.29707230048836       -3.04258419820865
H           -4.91449810272788       -3.72675378324149        2.42114311513107
H           -5.32457825703891       -4.97969705163933        1.22313679936506
H           -3.64118529515317       -4.42145876239465        1.37694446945864
H           -3.08848260225080       -2.24040249571062        2.11798024374781
H           -2.15137633632950       -0.00863670831588        2.02969038009873
H           -3.03751530062180        2.38174090753609       -1.85963037362071
H           -1.65590807495226        3.23685917867669       -1.17785636986284
H           -1.79360470134810        0.23296963258462       -1.64076646117611
H           -1.03201829695951        1.39618258338027       -2.72913381283363
H           -0.69094421153802        1.68077905421700        0.67539566731454
H            0.65418436522309        1.99771134774566       -0.97500982069443
H            2.13436153711024       -0.64829541311740        0.71863504139023
H            2.30185234893649        0.99362514100390        0.08374508621370
H            2.77485319329558        0.06104091575948       -2.18335149884177
H            2.68591954527741       -1.57736847802387       -1.51645111873292
H            4.62809753378685        1.56138329286317       -1.56766186005994
H            6.92945686100810        1.75917564417276       -0.79024262077826
H            8.65041152421258        1.81119825771749        0.81912473183959
H            9.20492497595528        1.14391545569121       -0.74351723815191
H           10.03818414167981        0.69550154790618        0.76552192112077
H            7.05586848143630       -4.23822617992878        1.65119806272498
H            5.43854259470162       -3.50676178646552        1.79397019822525
H            6.02274988300984       -4.09160091770643        0.20846500284104
H            4.40547441504662       -2.39902082173155       -0.01139272595407
H           -0.22181987899664       -1.62572957664764       -1.65903006706316
H           -1.00863832791662       -1.23396865407804       -0.11333282606129
H            0.56799779310746       -2.04665030747295       -0.12834071968868
H           -4.66749601584855        3.04971847254351       -0.18654277503254
H           -3.76354721635675        2.91666621827226        2.69633828400600
H           -4.90105928721804        1.79728514365079        1.92958454675711
H           -5.33854942848018        3.49437409791995        2.13063405032274
H           -2.58355480194477        4.71994063494354        1.27458315547246
H           -3.03973999584282        4.86999547719963       -0.43097117103148
H           -4.20374764493619        5.24356525608760        0.82849709840357
H           -0.60327739159254        2.69799287692527        2.76062259490317
