72
 energy: 64.287858024056 xtb: 6.6.1 (8d0f1dd)
N           -1.65562162233484        1.77698621534745        2.69578394675489
C           -1.62317459769167        1.95298648895679        1.42640049495334
C           -2.58300469893661        1.63791980650863        0.44170967548506
C           -3.26877444511624        0.36608782990856        0.54017650471429
C           -4.13956249495298       -0.05189677811954       -0.48555564763687
C           -4.75692855335040       -1.27707925107152       -0.45887057361731
O           -5.65572708117599       -1.72598949020681       -1.38584845224171
C           -6.08283614699013       -0.84902264882052       -2.39520285112413
C           -4.48512790190928       -2.17325042096131        0.59521041470202
O           -5.16936818292155       -3.35206745803767        0.55017561050603
C           -4.99783762247353       -4.27811806498634        1.58603018786343
C           -3.57164918528472       -1.80098341005767        1.56251093757955
C           -2.98875701819440       -0.55421787289161        1.54906140806592
C           -2.26206506695416        2.17527495049726       -0.92818621419644
C           -1.28960927016038        1.24883929993839       -1.80683683235139
C            0.08848093689754        1.19104684439903       -1.30932752002112
N            0.66833128792627        0.07990970840649       -0.77286593979624
C            2.05624830832530        0.09648561286001       -0.36527284965460
C            3.00474217712554       -0.54050235113722       -1.40014409651407
C            4.42965788736343       -0.43771613831890       -0.92686200573823
C            5.14937556917286        0.72766879010192       -1.11023916538279
C            6.44976871291904        0.84820263138060       -0.63492672928746
C            7.05049634438369       -0.20217968865091        0.03727112443829
O            8.31422355822756       -0.19856065432254        0.53978108430143
C            9.09767631282170        0.95281434009555        0.35734391089952
C            6.32115799828775       -1.39713047153184        0.23981040420809
O            6.98544889441224       -2.37539681523233        0.91250655184261
C            6.33971199317525       -3.60586469258272        1.11445885595086
C            5.02482975386934       -1.49361820496471       -0.23604155030756
C           -0.00672201597381       -1.19414814845854       -0.71859948391156
C           -4.17614555293827        4.00260622420232        0.53379464592742
C           -4.74557552136621        3.24244186620462        1.68898844045766
C           -3.27389417851922        5.15826068670980        0.67269871568787
H           -4.35572866646619        0.60731116840564       -1.32005596287933
H           -6.49242385240796        0.08119199249505       -1.98512031399028
H           -6.86591077874428       -1.37739640399763       -2.93758920542343
H           -5.27039287032999       -0.60815563166459       -3.08819408215082
H           -5.24977718342467       -3.84835552990371        2.56080942212467
H           -5.68776828390362       -5.09396234906167        1.36706762369134
H           -3.97639255406633       -4.67502897091586        1.61802071711078
H           -3.30543687864470       -2.47396588111212        2.35678064045747
H           -2.25489887339732       -0.31787726321473        2.29800899026037
H           -3.15909150298785        2.31684604502924       -1.53560528100588
H           -1.74886537780342        3.14041799835423       -0.87841872578168
H           -1.70706147951378        0.24638177763878       -1.88089852943411
H           -1.29120701043402        1.66020890101716       -2.82896642397763
H           -0.68618811559196        2.30783473746078        0.94506132382634
H            0.74927498950326        2.03613458008131       -1.40769469223788
H            2.18827900340737       -0.43522659569788        0.58396828076803
H            2.35433543062223        1.12532882257533       -0.17674908824112
H            2.87347577830627       -0.00254245888768       -2.33992345647850
H            2.73948695105104       -1.58778489222235       -1.55702907167164
H            4.70220369402257        1.55600287846557       -1.63903342933536
H            6.98436744146931        1.77119525682375       -0.79673921818373
H            8.65147141314518        1.82563108691011        0.84705233220679
H            9.25113765836240        1.17090331821271       -0.70480440905507
H           10.05982159541118        0.73789508079333        0.82006084072440
H            7.06562959047564       -4.23704788542755        1.62345793920883
H            5.44770145559018       -3.49711547903942        1.74236660801715
H            6.06020610191426       -4.07580702934504        0.16622008920646
H            4.45225826444432       -2.39508893621782       -0.08054916487542
H           -0.22520484924022       -1.58689788114549       -1.71944151781276
H           -0.94756919805408       -1.11844940644058       -0.16182505351458
H            0.63278384875170       -1.90739369703435       -0.20326218390388
H           -4.90427220885939        4.19821934233804       -0.23325580544687
H           -3.95797865904988        2.97891916270223        2.33937379470902
H           -5.25444046182531        2.31991901301369        1.39717320215130
H           -5.46752496677551        3.89669688524767        2.19396433124027
H           -2.38250105792777        5.03712862841292        1.27961419100867
H           -3.00786255330794        5.46671242376655       -0.33328076501494
H           -3.87974289652899        5.93748256121413        1.13252780533977
H           -0.72179439583305        1.90033354120460        3.06857427789582
