72
 energy: 52.292493287000 xtb: 6.6.1 (8d0f1dd)
N           -1.40988073968013        1.22466457453598        2.63165914727751
C           -1.42279887781206        1.72196706577631        1.44870409545035
C           -2.32586334289574        1.32753195458193        0.43537388874284
C           -3.09407253035398        0.11429904870562        0.52518348228829
C           -4.00787625973891       -0.24748179801303       -0.48657551483542
C           -4.70928718636559       -1.42751303840002       -0.42858552983797
O           -5.59579791643802       -1.85764051632014       -1.38208292574706
C           -5.90578121116337       -0.99258666039563       -2.44146547711201
C           -4.53449210598308       -2.31205711515121        0.65763845435015
O           -5.27577074812098       -3.45932578114627        0.61139875855164
C           -5.20238774555944       -4.36452313745463        1.67690833142460
C           -3.63442703366915       -1.96943831390136        1.64903869082387
C           -2.93860253908340       -0.78464471989904        1.58873866275518
C           -2.20449682866544        2.04422603763454       -0.83172907161034
C           -1.26197702908491        1.22055915806905       -1.89646479592501
C            0.12767371154703        1.12757405588129       -1.53431899174301
N            0.66877668714619        0.13253388767800       -0.81476529929299
C            2.06093580092284        0.17183457003782       -0.43075188026743
C            3.01190666969287       -0.52193448029685       -1.43409835908820
C            4.43381423293124       -0.42032261617807       -0.94699450378815
C            5.16280181415651        0.73887216876894       -1.13791811210793
C            6.46057881918887        0.85441707668119       -0.65704576945103
C            7.05551458107019       -0.19314415056072        0.02443762656393
O            8.31672286345040       -0.19139823716837        0.53723938721617
C            9.10386201057858        0.96165818153946        0.37644933053828
C            6.32327770781861       -1.38813131918591        0.21846789048049
O            6.98758687942685       -2.36987863636612        0.88634473554410
C            6.34887731447845       -3.60479364916676        1.08782209946806
C            5.02886331624776       -1.48047930045241       -0.26301369416109
C            0.00402387112774       -1.14928387376262       -0.72555187685632
C           -4.53250045131388        4.54514634993190        0.56136455384597
C           -4.82138277302872        3.46554856194316        1.53871004145636
C           -3.41810858229455        5.50700225829579        0.69065948083811
H           -4.17961976003513        0.41765455480725       -1.32004308175334
H           -6.28267767372252       -0.02579524287752       -2.08649229690483
H           -6.68981208449685       -1.50033426188303       -3.00128337792735
H           -5.04963430458788       -0.82049389744235       -3.10471039680609
H           -5.47104974149296       -3.90952188306270        2.63647636284577
H           -5.93167684895813       -5.13668204575682        1.43255380531171
H           -4.20854750718392       -4.81905801932285        1.76279000199640
H           -3.44416736854882       -2.62361706481069        2.48265556635921
H           -2.25166158100133       -0.54006080828911        2.37855544260298
H           -3.14259001295001        2.17900520620329       -1.36879412945799
H           -1.74908374498946        3.03013535755848       -0.72155427966904
H           -1.74058688418812        0.25321452647846       -2.02546174398565
H           -1.34202311696983        1.79927098617579       -2.80560366498516
H           -0.73281968224707        2.55461038842191        1.15645086223546
H            0.74021904501342        2.01655343085321       -1.61189494651709
H            2.16101257266578       -0.31278897547419        0.54323500187659
H            2.37028363211537        1.21040496024171       -0.32524167371835
H            2.91896335273564       -0.03762346936889       -2.40960519368137
H            2.72894573728273       -1.56943458560441       -1.54176750806621
H            4.72615570778475        1.56939083786127       -1.67350737461909
H            6.99909097346696        1.77278132232704       -0.82463653136896
H            8.65066702045074        1.83287034487605        0.86179144068808
H            9.28093018260209        1.18651523911555       -0.68066386040699
H           10.05381879523254        0.73576907755514        0.85857893907515
H            7.07689487064862       -4.22552253036810        1.60762731754205
H            5.45199505986219       -3.50220628461598        1.70891203869132
H            6.08187993429828       -4.08048799873361        0.13844535622076
H            4.46373179778816       -2.38795216818745       -0.11786746467965
H           -0.22614425082603       -1.54436068671596       -1.71968247640426
H           -0.92477658159721       -1.05649325401774       -0.15906743210488
H            0.65831070572530       -1.85032843546125       -0.21597576714821
H           -5.34270053890532        4.84802913645854       -0.09062414185098
H           -3.90674469023732        3.11505197416588        1.98899825048325
H           -5.32030364432305        2.62697797769349        1.05154964017238
H           -5.53982401912973        3.80537808305986        2.30146996038134
H           -2.58628910519688        5.11689616097547        1.25490691660621
H           -3.07208230882641        5.81484319954730       -0.29604119926610
H           -3.77107334663239        6.39580482062664        1.21957597610378
H           -0.60953952465078        1.52216543290639        3.19424215119715
