72
 energy: 57.187823365027 xtb: 6.6.1 (8d0f1dd)
N           -1.58540445433896        1.42579628070463        2.64667415219938
C           -1.51619046257863        1.83284871107738        1.43240154704949
C           -2.43799755364786        1.45904172629292        0.43435697974998
C           -3.16840931675334        0.22477120749207        0.53868461191353
C           -4.06091910805931       -0.16355831107531       -0.47982630595094
C           -4.72478418723563       -1.36434483181304       -0.43571876158343
O           -5.60498781952532       -1.80772781738691       -1.39124344389007
C           -5.97813476781076       -0.93229623981682       -2.42478305793931
C           -4.51385293478707       -2.25386280431078        0.63754073094862
O           -5.23816361424121       -3.41203335424768        0.59343370747553
C           -5.11478869153334       -4.33212759856080        1.64080225793244
C           -3.61985947866082       -1.89151394528544        1.62474705726575
C           -2.97386940446860       -0.67964234427993        1.58749115993861
C           -2.23735125705763        2.10854935690277       -0.86830741469780
C           -1.26987263080469        1.23674627679781       -1.85352866722083
C            0.11648365209704        1.14826059117783       -1.44513908693986
N            0.67382042488064        0.11020002195970       -0.81287058454438
C            2.05536874293357        0.13889443397968       -0.42720508199805
C            3.02078951516203       -0.53057813473383       -1.43130730607357
C            4.44110136043842       -0.43038006308073       -0.94992345635778
C            5.16603458420278        0.73113280694708       -1.13413677261203
C            6.46154142580378        0.84840856624183       -0.65144623134254
C            7.05660844833517       -0.19843752667124        0.02721657993425
O            8.32005513552262       -0.19505558806314        0.54140448422046
C            9.10354471386209        0.95849526879552        0.37070212090154
C            6.32574283937474       -1.39086246963577        0.22364631864081
O            6.99134463872790       -2.37301712766700        0.89500172260414
C            6.34615852549593       -3.60441596578097        1.09837891463312
C            5.03333286434375       -1.48693037567233       -0.25942444964790
C            0.00166837740745       -1.15703068282438       -0.72929710657666
C           -4.38035217379206        4.32146879682783        0.53274415759266
C           -4.79780062166845        3.38378432526301        1.61022310577199
C           -3.34304991702598        5.36066979742265        0.69176201426296
H           -4.25440027586002        0.49595261019753       -1.31629906691136
H           -6.37091924823408        0.01881811397454       -2.04383238499069
H           -6.76392224382232       -1.44791084501197       -2.97684343167350
H           -5.14187826854805       -0.72621367007611       -3.10288976815062
H           -5.37448636452459       -3.88931738311267        2.60776323231839
H           -5.82849080593118       -5.12350964965310        1.40762094164948
H           -4.10765305083311       -4.76316026000253        1.69994786980359
H           -3.38938536777410       -2.55228361010657        2.44088023041350
H           -2.29092695684606       -0.43081573233480        2.37919035647106
H           -3.15032680737628        2.23896851482082       -1.44490112562717
H           -1.76071328473778        3.08746467458914       -0.78306213626254
H           -1.74372673365753        0.26299458032489       -1.94927167629271
H           -1.34211326258047        1.73756378087407       -2.81826983472130
H           -0.69083952603903        2.49183026092783        1.06442216500923
H            0.77430171283323        1.99949331539166       -1.54570825118862
H            2.15449151230265       -0.36364700020562        0.54046188672632
H            2.35748258971020        1.17211364666948       -0.27057514487990
H            2.90915578782054       -0.02395899870922       -2.39043235237134
H            2.74096630001489       -1.57608174984267       -1.55621502705897
H            4.72581036465188        1.56047935830538       -1.66674583618500
H            6.99914386335605        1.76951433206369       -0.81208751675747
H            8.65155235145691        1.82963899787918        0.85826523820254
H            9.26838892443523        1.18051189794790       -0.68924847861946
H           10.05960491464452        0.74041220161722        0.84505850329709
H            7.07261804150797       -4.23065259068486        1.61396566795368
H            5.45056416331167       -3.49833718989239        1.72201448291573
H            6.07251890639287       -4.07721253987282        0.14946596574403
H            4.46399564908469       -2.39093394982755       -0.10748370749031
H           -0.22518196970387       -1.55775877886664       -1.72201462584783
H           -0.93325918678512       -1.07365831393981       -0.17008911880842
H            0.65020311311520       -1.85794004380808       -0.21258480782343
H           -5.14361993495601        4.59001830479290       -0.17950145956211
H           -3.92790528451488        3.04620155509079        2.13414206232939
H           -5.32587644008560        2.51489700813007        1.22259020649435
H           -5.50617609816802        3.90182135266380        2.27630206356676
H           -2.47827319215299        5.08681678726791        1.27234032677461
H           -3.02890075653081        5.67359079387973       -0.29832237032517
H           -3.80922580593520        6.19975252337072        1.20666425199262
H           -0.69461055181240        1.59162827004211        3.11469848490898
