72
 energy: 44.859511415937 xtb: 6.6.1 (8d0f1dd)
N           -1.63031952020674        2.15223745047958        2.64679327620168
C           -1.66620112065630        2.06078669887136        1.38800893268556
C           -2.77147448069642        1.93330481764717        0.41756794609029
C           -3.35368095211070        0.52179804073362        0.51959101173206
C           -4.20481615117631        0.06204723367004       -0.50343020011034
C           -4.78299084523095       -1.19047946044746       -0.48484191091393
O           -5.70906402485345       -1.65496263190158       -1.37953060862782
C           -6.18816763144732       -0.77196793467756       -2.36149586280076
C           -4.45457004990175       -2.09804473570756        0.54371565045346
O           -5.11251166877067       -3.29263813594513        0.49862497555729
C           -4.88817932507658       -4.22058611789329        1.52497544535258
C           -3.51962798685541       -1.70540404020849        1.48144257439293
C           -2.97390545068177       -0.42577670121615        1.46701009763946
C           -2.26306312468876        2.23217713512082       -1.02198446869513
C           -1.29451034392992        1.23789921893639       -1.75983478046159
C            0.05760685895784        1.20461096719283       -1.15846388569820
N            0.67155222689599        0.03365116915452       -0.72695296640700
C            2.04419449469743        0.04765076151541       -0.30730485738538
C            2.99426738917851       -0.54372817158853       -1.36452961480727
C            4.41115042707917       -0.43782360510860       -0.90075280690654
C            5.12824781824213        0.72876208678312       -1.08774725308457
C            6.43196642374210        0.84574152292433       -0.62333793655535
C            7.03988990249825       -0.20502423868201        0.04325230383846
O            8.31137267025351       -0.20622381223530        0.53805036391990
C            9.09059791541843        0.94395947783704        0.34623784782986
C            6.31024137848418       -1.39677131210257        0.25067040538572
O            6.98257085876189       -2.38131895961935        0.91669447684826
C            6.33245283221301       -3.60863198239440        1.12580108394426
C            5.00934533469204       -1.49216573363542       -0.21213685176033
C           -0.01522296642314       -1.23204844028291       -0.69308263807402
C           -3.97766076213188        3.59351003767645        0.54740056489931
C           -4.67343579350672        3.08545089483434        1.78445163120068
C           -3.28505427487156        4.92761825802552        0.63300835765653
H           -4.45686005239390        0.72698731949579       -1.31924696483882
H           -6.61089785496637        0.13954564130224       -1.92300013992126
H           -6.96996280182979       -1.31600771074531       -2.89027977196221
H           -5.40140128878848       -0.49428003085342       -3.07036457339216
H           -5.12971949718021       -3.80372376507254        2.50849758886171
H           -5.55631915139455       -5.05502432713304        1.31370818027007
H           -3.85442957064436       -4.58236804136094        1.53017753064997
H           -3.22061881799511       -2.38509134404266        2.26293991617572
H           -2.21715972732395       -0.20626641677638        2.20041859388563
H           -3.13549937013246        2.36581788845920       -1.66238193080342
H           -1.71652353994591        3.17888793911662       -0.99369315755918
H           -1.73165388950617        0.24090050915610       -1.78990457532346
H           -1.20541297071023        1.56013094136523       -2.81089248698745
H           -0.69408492819478        2.04311941955621        0.84906444270549
H            0.72367025748725        2.03734109219315       -1.25000855721182
H            2.18525137108183       -0.51160179450298        0.63014471314358
H            2.32433845148607        1.07728359093144       -0.09355075189279
H            2.84106189154716        0.01919707911838       -2.28563413487674
H            2.72362266353255       -1.58544374083381       -1.54457926211928
H            4.67621544044840        1.55723938138932       -1.61338236389936
H            6.96587219907059        1.76756193434771       -0.79261815787713
H            8.65017874754279        1.81918579289058        0.83774782502287
H            9.23444548899825        1.16176126574889       -0.71791615812741
H           10.05415852968056        0.72233236530525        0.80205572877892
H            7.05878951775777       -4.24031183019793        1.63380249502086
H            5.44396618988598       -3.50023914116147        1.75903913063314
H            6.04576933099961       -4.08156333125230        0.17996780472334
H            4.43548433182980       -2.39280255688261       -0.05626271347646
H           -0.22149997605088       -1.61638523263119       -1.69887499089295
H           -0.96278638403324       -1.15679996129109       -0.14655497614659
H            0.61012469180944       -1.95913399681792       -0.18070984538404
H           -4.71388390819358        3.72879021173606       -0.24919881204927
H           -3.90671662164687        2.97517723710700        2.50507926592424
H           -5.12612489369408        2.11453814946114        1.58676371718987
H           -5.43929091224988        3.76459337844116        2.16049160897855
H           -2.41773562157972        4.92589925046350        1.28209215881848
H           -3.01501502868021        5.24323726650131       -0.37143267020895
H           -4.00026480776787        5.67187581949076        1.01352929137221
H           -0.65875812524728        2.17499048440629        2.97116590725330
