72
 energy: -3.147009069740 xtb: 6.6.1 (8d0f1dd)
N           -1.53544193802060        2.64250089343233        2.36439174212986
C           -1.58840775100501        2.12779258189780        1.21759280686203
C           -2.79048065713911        2.06573031029622        0.30188201249392
C           -3.33394665599871        0.62729133224191        0.38324738234307
C           -4.28063373722174        0.20288796493963       -0.55590396030232
C           -4.83175641225274       -1.06366581679284       -0.52007433668238
O           -5.79305278644345       -1.53114698495543       -1.36733625473952
C           -6.34449892883426       -0.65003011014925       -2.31134327136681
C           -4.41131934650371       -1.98210278009636        0.46669522686109
O           -5.02174266389647       -3.19935016061454        0.43068750096044
C           -4.71971253108060       -4.13139090468383        1.43647125984255
C           -3.44442982102766       -1.58389822053608        1.36861854337612
C           -2.90749210927184       -0.30011916795727        1.32138851011534
C           -2.21343662013327        2.28433442800094       -1.14043873155847
C           -1.26892139304184        1.19110035590177       -1.68460353519038
C            0.01857943206583        1.14787941967264       -0.94611743268844
N            0.64999509919733       -0.03522653762257       -0.59747536027235
C            2.01660414270324       -0.01866628297033       -0.19361774384824
C            2.95165251113253       -0.54334970772896       -1.30006593614216
C            4.37282387925952       -0.43513250594041       -0.85356364403901
C            5.08875213238118        0.73042836816521       -1.05308017272250
C            6.39774970009978        0.84351415921775       -0.60734356914573
C            7.00765845341685       -0.20782273578427        0.05354758683023
O            8.28461236102505       -0.21036708104576        0.52988789992478
C            9.07431455350865        0.93210180031910        0.32583632645924
C            6.28012245632028       -1.39903849601976        0.27365413539853
O            6.96031985683554       -2.38269158992835        0.92904498407567
C            6.32026486783332       -3.61314725557966        1.14606887812724
C            4.97668206593063       -1.49321394690740       -0.17458668550486
C           -0.03840025843564       -1.29159636242246       -0.63764578966757
C           -3.89298861606455        3.18648727177033        0.56805432416915
C           -4.53787274086293        2.85195827497925        1.90634916981738
C           -3.37334351142844        4.62497324306067        0.56630208966590
H           -4.60914081634973        0.89329007810390       -1.31644824585092
H           -6.78967013485692        0.22942626709301       -1.83345506700185
H           -7.12303393836350       -1.21787642977259       -2.81868064373937
H           -5.60025240849369       -0.32497817843208       -3.04604818317253
H           -4.94497131431396       -3.73789389117702        2.43350286591848
H           -5.35710781933581       -4.99159830602190        1.23670316130534
H           -3.67107840596886       -4.44477357683820        1.39881788370070
H           -3.10655769988234       -2.26165133620804        2.13704749450589
H           -2.15982355681459       -0.03827525664955        2.05332736109514
H           -3.05148457903020        2.38046096904299       -1.83155544980286
H           -1.66342797656129        3.22790039723779       -1.15166333254829
H           -1.78402987052975        0.23278614356019       -1.66003603483119
H           -1.05634508101185        1.41677665664570       -2.74265096240888
H           -0.69718993978287        1.71658529657478        0.70724448483163
H            0.66384821389768        2.00508006531021       -1.01276432312578
H            2.14490673694033       -0.63070388460813        0.70687055674380
H            2.30436386601307        1.00408830646309        0.05817572453716
H            2.78418413981898        0.05450061230286       -2.19780762341276
H            2.69166709887497       -1.57943279740082       -1.52058645383740
H            4.63492243392085        1.56060948391096       -1.57405619237308
H            6.93453140215895        1.76069666100021       -0.78951680759735
H            8.65025129019393        1.81248082781675        0.82167203397202
H            9.20884078253605        1.14660563570554       -0.73991672177087
H           10.04076172173671        0.69965192416796        0.77033352251738
H            7.05659281544607       -4.23890711916754        1.64822579452532
H            5.43936288128386       -3.50586966355232        1.78910173088726
H            6.02599624259766       -4.08952482527358        0.20434726675750
H            4.40990057781192       -2.39795637506873       -0.01759626356183
H           -0.22346080250922       -1.62748743813468       -1.66578873482931
H           -1.00025167083821       -1.22362031115659       -0.11763817444589
H            0.57574096827238       -2.03609219357441       -0.13695967053434
H           -4.68461017426818        3.14681542926445       -0.19379919477323
H           -3.77362280505805        2.93048556194578        2.66459650551834
H           -4.93075436058401        1.83919687202291        1.88152885394090
H           -5.35386097625039        3.53309602424165        2.13536235569404
H           -2.56170577320739        4.75057776975766        1.27711938238321
H           -3.03677280215317        4.92305134523974       -0.42347479653125
H           -4.17766725607611        5.30306312234149        0.85276148216052
H           -0.60986725010847        2.62431238990664        2.79508796285945
