72
 energy: 55.461187178105 xtb: 6.6.1 (8d0f1dd)
N           -1.62740430206567        2.05386917756640        2.65816140775583
C           -1.65939076388770        2.05389288479204        1.39317443978991
C           -2.72450466422679        1.85332064201944        0.42601108025882
C           -3.33441108260401        0.48383724308269        0.52868360511851
C           -4.18943052940527        0.03302369925126       -0.49826480973598
C           -4.77577584604084       -1.21349474774849       -0.47846099358264
O           -5.69616227553989       -1.67745611021524       -1.38185917350861
C           -6.16202478781011       -0.79284604813112       -2.36936888248181
C           -4.46251274969833       -2.11827554097415        0.55690397263690
O           -5.12878973615598       -3.30998231224288        0.51000265226118
C           -4.91660142834822       -4.23531217856193        1.53969612240903
C           -3.53305885450565       -1.73065343981733        1.50254644122771
C           -2.97881866889860       -0.45907655786638        1.48957761478586
C           -2.26385402125947        2.21654858941586       -0.99958484898765
C           -1.29491390054104        1.24141702085028       -1.77637674604968
C            0.06810375152803        1.19347708826494       -1.20491730231317
N            0.66693530802001        0.04869223385781       -0.73692868540631
C            2.04772240918295        0.06321854887579       -0.31801280969491
C            2.99785252144130       -0.54157206502236       -1.37244121575100
C            4.41647379588912       -0.43731199252268       -0.90737203067385
C            5.13439100349128        0.72863262514153       -1.09322916214512
C            6.43768862033725        0.84555525700440       -0.62593340749717
C            7.04526923095018       -0.20478733770990        0.04274458167331
O            8.31550578502468       -0.20536567752626        0.53940618705132
C            9.09329990064241        0.94607092311810        0.34963132199318
C            6.31428208110284       -1.39729290325996        0.24806131988392
O            6.98240036296107       -2.37976126284511        0.91577747893192
C            6.33400499945539       -3.60842159595269        1.12254342282186
C            5.01386981084041       -1.49176186014666       -0.21835566039776
C           -0.01521385553503       -1.22231513403472       -0.69963187911298
C           -4.02607863195341        3.70074367317341        0.54307087085659
C           -4.69385789396546        3.12649529936311        1.75986535754989
C           -3.27547246755072        4.98430666333482        0.64262567381718
H           -4.43004681393523        0.69772823367555       -1.31905248300143
H           -6.58084499234408        0.12405392637347       -1.93784866673104
H           -6.94439892666151       -1.33229773174351       -2.90218397790610
H           -5.36847371045965       -0.52287068469114       -3.07406793854123
H           -5.16054091502415       -3.81406287409168        2.52078944990334
H           -5.58980304436140       -5.06525802597322        1.32655667032658
H           -3.88531495361352       -4.60485762007343        1.55229547387213
H           -3.24150388130025       -2.40892147192485        2.28655612123996
H           -2.22605262899722       -0.23500444443458        2.22530954551561
H           -3.14202389776802        2.35978437225398       -1.63072683287887
H           -1.72555650251709        3.16816910642069       -0.96370810649296
H           -1.72591304493707        0.24229354392205       -1.81561192759412
H           -1.22625875137428        1.58512108096310       -2.82052114495817
H           -0.68328560638256        2.12386965563698        0.86409108288405
H            0.72786773257352        2.03648648298929       -1.28713275136673
H            2.19049452127842       -0.49157074945678        0.61937301078668
H            2.32852544421503        1.09249953826010       -0.11622658066580
H            2.84962369950505        0.01412797321433       -2.29873125283367
H            2.72794916773521       -1.58484691013999       -1.54716095952258
H            4.68314418457746        1.55705083089912       -1.61976486768500
H            6.97100465449396        1.76816293797703       -0.79370069722790
H            8.65029525082566        1.82035278560467        0.84045548612254
H            9.23882852630547        1.16417574283452       -0.71422546715298
H           10.05605872845234        0.72573640378167        0.80764838919344
H            7.06088899865189       -4.23923867648345        1.63101866762549
H            5.44450956983097       -3.50055753455818        1.75430206186012
H            6.04925747066233       -4.08071036779955        0.17585646915503
H            4.43946722225765       -2.39225255656650       -0.06279967551644
H           -0.22360751186137       -1.60918774095015       -1.70457178818509
H           -0.95885535192898       -1.14449555954248       -0.14972781611721
H            0.61548784255726       -1.94529304718088       -0.18663558316350
H           -4.75691419586053        3.85103588394614       -0.24978016192876
H           -3.92978798811249        2.98126235318392        2.47268844361783
H           -5.15767486827493        2.16525717467509        1.53509346420083
H           -5.44901104715193        3.80123981301853        2.16853468802760
H           -2.40095333345846        4.95140951228479        1.28095120742131
H           -3.01224273584233        5.30000550744656       -0.36284150214103
H           -3.95976753039787        5.73149882042972        1.04879124224269
H           -0.66369371623192        2.10246047154705        2.99663231604198
