72
 energy: 49.918961865635 xtb: 6.6.1 (8d0f1dd)
N           -1.13550041731084        1.05912065935552        2.57723364140885
C           -1.33691037373731        1.64959937330379        1.45032659663736
C           -2.21907638082174        1.22223783378154        0.43015646965730
C           -3.00587745174351        0.02073979333878        0.50647891723912
C           -3.93998846175018       -0.31918900979817       -0.49790713917292
C           -4.69090942925472       -1.47138230460385       -0.43111042758076
O           -5.62659914195472       -1.85712731196302       -1.35792625622538
C           -5.92646879645880       -0.99214385276561       -2.41786807056668
C           -4.52714274774906       -2.36450654830323        0.64947899338644
O           -5.30582714164261       -3.49063153424713        0.60900857468926
C           -5.21546934469924       -4.40186561104148        1.67024682272985
C           -3.62056922552691       -2.03968136389834        1.64436501436718
C           -2.87883426825606       -0.87554961801879        1.57831125044741
C           -2.15016687011507        1.97611099594882       -0.82757422629245
C           -1.23961662557121        1.21955460757658       -1.93572091626782
C            0.14431169526094        1.14183990228362       -1.53079713402906
N            0.67940192522584        0.11817758381213       -0.85369787885949
C            2.05311916710467        0.16996275411372       -0.42202717944870
C            3.00931537745286       -0.52060837873172       -1.41800849247102
C            4.42846158529146       -0.41775754826116       -0.93436262445348
C            5.15381843347199        0.74228901289160       -1.12847258615660
C            6.45269139964818        0.85764745442249       -0.65269092937648
C            7.04741221623474       -0.19083397202620        0.02573614850163
O            8.30926703049671       -0.19041850614424        0.53375000951839
C            9.09980027269847        0.96012252142295        0.37368576560927
C            6.31684626290662       -1.38545937174074        0.22452705500152
O            6.98561563036768       -2.36638623444968        0.88824998542130
C            6.35105751235983       -3.60323170020114        1.09198003248775
C            5.02131264663029       -1.47831167449258       -0.25097196049720
C            0.00931077552965       -1.15631490695684       -0.73752355666502
C           -4.73805829194249        4.79697835287229        0.69990283994420
C           -4.85246723299914        3.53320076601311        1.45081353742365
C           -3.51955704398770        5.63057247835572        0.69704435225173
H           -4.09751212672574        0.34946287904932       -1.32824749866455
H           -6.29407183588921       -0.02216926658220       -2.06350382631563
H           -6.71533236947115       -1.48780449828289       -2.98291808592575
H           -5.06259819501850       -0.83280654385698       -3.07451300689423
H           -5.47977122727337       -3.94066408513790        2.62827346833294
H           -5.93436526327740       -5.18759955963499        1.44007593420764
H           -4.21387147664512       -4.84121679585598        1.74625397387927
H           -3.48368801443094       -2.69588045066364        2.49064734872513
H           -2.18848971005144       -0.62827834638237        2.36701961983820
H           -3.11925113166471        2.11296117501528       -1.30282435363411
H           -1.70691552317160        2.96142235243751       -0.68412254491102
H           -1.69285054825345        0.24318724016163       -2.09180327906913
H           -1.32639530911659        1.81809170222093       -2.84225100717517
H           -0.82389619437332        2.60259412190325        1.20840369132486
H            0.73962646057883        2.04180829044969       -1.55905413502626
H            2.13414324935210       -0.31492501328313        0.55445413000967
H            2.35764068719795        1.21213980904789       -0.30845751801051
H            2.91048170679134       -0.03329863017302       -2.39048445626906
H            2.72691915658400       -1.56836035266483       -1.53004402030086
H            4.71443678548331        1.57093986931693       -1.66359485368445
H            6.99262523189016        1.77525237712644       -0.82348373119830
H            8.65005385812661        1.83195975947625        0.86059130354717
H            9.27736573108782        1.18564390366441       -0.68327980858607
H           10.04858826094456        0.72959473149458        0.85575930197305
H            7.08172194809012       -4.22171713683873        1.61109062964305
H            5.45636369643497       -3.50327759750704        1.71563969809401
H            6.08285393589143       -4.08144255759224        0.14379791524636
H            4.45519878999463       -2.38524147439126       -0.10388528744003
H           -0.23382044415782       -1.56508705455878       -1.72210827230416
H           -0.91121665234001       -1.06135068874176       -0.15762074412185
H            0.66334160882501       -1.85614270371603       -0.22422802572436
H           -5.60739089944388        5.16996991941600        0.18216088905041
H           -3.88481953609646        3.18488837980989        1.80603884859259
H           -5.29756292118287        2.74757908284028        0.83471629075925
H           -5.51302595577360        3.64874909302186        2.31937735231059
H           -2.69939819502777        5.12714113287088        1.20432007281230
H           -3.21172735679979        5.87064746899446       -0.32558917686456
H           -3.69501009643229        6.59283667561539        1.19318765835480
H           -0.49918361696531        1.55292898703340        3.19805520487700
