72
 energy: 55.687466731863 xtb: 6.6.1 (8d0f1dd)
N           -1.53489278017781        1.34635157104401        2.63084450777482
C           -1.48651777257299        1.79208595044682        1.43167260008153
C           -2.40218501699833        1.41652086024695        0.42959231562094
C           -3.14307500326768        0.18855885027429        0.53473028589044
C           -4.04215270557179       -0.19152549876575       -0.48131544377239
C           -4.71827681501767       -1.38538549857971       -0.43060634559352
O           -5.59314003969734       -1.82809386279158       -1.39386225132712
C           -5.95218561029766       -0.95269265882819       -2.43179535291500
C           -4.52271506076030       -2.27253711344480        0.64765533409360
O           -5.25492924144268       -3.42628822892662        0.60351655182554
C           -5.14427862451381       -4.34426733016014        1.65420668120197
C           -3.62639182690212       -1.91616932281147        1.63581955138702
C           -2.96323366327193       -0.71383648791335        1.58984747428280
C           -2.22726599631886        2.08876347161949       -0.85872909843110
C           -1.26854090060340        1.23696371471193       -1.87429045303415
C            0.12121354874420        1.14411303517561       -1.48352190092936
N            0.66771006557307        0.12713906251142       -0.81604918341907
C            2.05301583688888        0.15483796358192       -0.43763895976841
C            3.01864409998050       -0.52588432726502       -1.43208896433418
C            4.43701748644250       -0.42553856502907       -0.94914459475745
C            5.16618710557578        0.73340459129083       -1.13654617964231
C            6.46338995185381        0.84957824110584       -0.65474914510841
C            7.05853168547818       -0.19658393801485        0.02582982817354
O            8.32095005711951       -0.19355531782257        0.54187370706252
C            9.10482846403511        0.95988634218062        0.37380951677262
C            6.32472707724735       -1.38806568013715        0.22028938507939
O            6.98941209015574       -2.37150743307653        0.89094481180599
C            6.34618741307607       -3.60438615630178        1.09434044213383
C            5.03142999478016       -1.48221043259326       -0.26113711602029
C            0.00302432429189       -1.14598841048251       -0.73023545891777
C           -4.43201913702286        4.39627282992978        0.54117935673077
C           -4.80475649553151        3.41131580679583        1.58896603867702
C           -3.36677872151877        5.40964680891659        0.69261293476224
H           -4.23171081535994        0.47045651064116       -1.31379113319785
H           -6.34090403037701        0.00285037755098       -2.05725467660919
H           -6.73856226299346       -1.46577848486235       -2.98509112908051
H           -5.11038331230765       -0.75532908763047       -3.10623776571084
H           -5.40625619510735       -3.89786535014600        2.61891184659247
H           -5.86377341392597       -5.12922386650738        1.41713223028933
H           -4.14092959584266       -4.78311858660480        1.72057266579879
H           -3.40916466113763       -2.57333039944500        2.45875652520611
H           -2.28182192173648       -0.46779468973526        2.38495288727382
H           -3.14833742268577        2.22044749993948       -1.42081724584775
H           -1.75854453731310        3.06998177660913       -0.76150787239498
H           -1.74471251695711        0.26596218825422       -1.97795161687338
H           -1.35599291045379        1.76577809335314       -2.82329377574051
H           -0.69770508325243        2.49416357439688        1.10402856692157
H            0.77330583934782        2.00312282990933       -1.58587141812504
H            2.14778398536180       -0.34468775674740        0.53157843922099
H            2.35997706590390        1.18720805046592       -0.29167695419295
H            2.91678962702991       -0.03150421161304       -2.39838137166361
H            2.73769595608312       -1.57396142986244       -1.55271452273562
H            4.73120337197547        1.56421915349377       -1.67148458790669
H            7.00205911223855        1.76984083924183       -0.81701397488794
H            8.65245876128429        1.83163603910523        0.86002187760357
H            9.27293577858149        1.18237526806453       -0.68564922436951
H           10.05856174381669        0.73862828426381        0.85069257348479
H            7.07328338790210       -4.22904279311051        1.61104875184225
H            5.45044590130611       -3.49928279450499        1.71731879688256
H            6.07520253560700       -4.07814292870732        0.14531755226718
H            4.46742183169113       -2.39045530416624       -0.11254277607959
H           -0.22274209686687       -1.55062625843526       -1.72022246465225
H           -0.93111481466342       -1.06278978275488       -0.17117028573528
H            0.65574582972787       -1.84436596415281       -0.21683364465588
H           -5.20934080710110        4.67774003817037       -0.15312882261421
H           -3.92016584497295        3.06232720153514        2.08362791825033
H           -5.33593007699303        2.55715549891331        1.17147523946999
H           -5.51884811383481        3.87341943399948        2.29019333279949
H           -2.51305769221359        5.09452752419042        1.26796172490741
H           -3.04068860050006        5.72201966063112       -0.29524435351726
H           -3.79381636068085        6.26511847498028        1.21664665554324
H           -0.66681961976577        1.51934760227128        3.12969444298762
