72
 energy: 50.203118093432 xtb: 6.6.1 (8d0f1dd)
N           -1.15347303621165        1.09937746018718        2.62156869825248
C           -1.33709484890555        1.63025298240835        1.46220853825727
C           -2.20004746762298        1.19518048668097        0.43047586561604
C           -2.99204666535102        0.00084707706718        0.50256782400312
C           -3.92790959445780       -0.33241349434022       -0.49973584020775
C           -4.69107864285664       -1.47497413042106       -0.43211201108176
O           -5.63847836578169       -1.84733457266915       -1.35350797196834
C           -5.94066980306905       -0.97932579619468       -2.41108271254898
C           -4.52801621538539       -2.36773237709620        0.64799008183747
O           -5.30601221828469       -3.49323377747791        0.60416259886293
C           -5.20836081870741       -4.40209552948419        1.66524083439028
C           -3.62304689908623       -2.04703376336243        1.64646701124572
C           -2.87405109791496       -0.88775176122767        1.58063490908411
C           -2.15221037160733        1.97069772003269       -0.81189634019557
C           -1.23394802670449        1.22640860827589       -1.94312874301098
C            0.15042134719946        1.14326799962882       -1.54810560404257
N            0.68122335045862        0.11785187388697       -0.86450081825688
C            2.05074759775698        0.16645736503885       -0.41535579713278
C            3.00820642468068       -0.52021625181473       -1.41382510167683
C            4.42821317762772       -0.41836643232768       -0.93315226350980
C            5.15339367995233        0.74158927813262       -1.12672854231425
C            6.45294016430151        0.85630309975471       -0.65203693254682
C            7.04749841844829       -0.19270394415478        0.02580098557744
O            8.30981104405758       -0.19338611193028        0.53336706121043
C            9.09950434988657        0.95704426711979        0.37166714675972
C            6.31657369890230       -1.38703384159247        0.22504307564461
O            6.98582725097558       -2.36875152277898        0.88784352984899
C            6.35002124871273       -3.60498279378090        1.09172865198661
C            5.02079956261319       -1.47933021002936       -0.24983578106630
C            0.00929063741545       -1.15843056273394       -0.73750906511241
C           -4.72340940787473        4.79584550376507        0.65917119659850
C           -4.85340151245599        3.55194145940180        1.45565991180199
C           -3.52223305271915        5.65450271048748        0.69777628677384
H           -4.07923858903433        0.33645759314587       -1.32991898083021
H           -6.30818209815969       -0.01036038023055       -2.05397064257409
H           -6.73234816013994       -1.47215633591867       -2.97550372857920
H           -5.07820345206523       -0.81987584880567       -3.07020905571950
H           -5.46875947528262       -3.93837237777628        2.62287643850501
H           -5.92659489539814       -5.18931817804763        1.43941467080246
H           -4.20393395371910       -4.83623972165451        1.73735157207141
H           -3.49379393552414       -2.70391662351923        2.49474393658850
H           -2.18195980825205       -0.63781190828457        2.36708014457368
H           -3.12336676250564        2.10095789964160       -1.28674969095535
H           -1.71936292437980        2.96098354916579       -0.66410956596414
H           -1.68784525443353        0.25033892618091       -2.10194454355189
H           -1.34223296325198        1.84363163506599       -2.83621564600362
H           -0.79838271317060        2.55463595557119        1.19498680701383
H            0.74509521585655        2.04389614394697       -1.56471900489409
H            2.13104096176672       -0.32318630703260        0.55977805063221
H            2.35539033706161        1.20719338108854       -0.29174780226824
H            2.90530502580502       -0.02875190052812       -2.38324934230307
H            2.72670448269150       -1.56784769563734       -1.53084021434669
H            4.71167745062243        1.57032430934027       -1.65981703005315
H            6.99146624392463        1.77470795324686       -0.82165337531703
H            8.65048428273944        1.82896962981702        0.85922573210012
H            9.27468996132432        1.18230936980414       -0.68572219914127
H           10.04919602494482        0.72687643619429        0.85211135641645
H            7.08020187578458       -4.22457902037774        1.61017865248964
H            5.45571796355063       -3.50481265989628        1.71578475489082
H            6.08064593455672       -4.08234838968150        0.14344976756674
H            4.45337877632742       -2.38541154551952       -0.10224814413693
H           -0.23558949645583       -1.57148066528186       -1.71916434148493
H           -0.91116723627000       -1.06671637380352       -0.15632435765799
H            0.66026191207546       -1.86277789952223       -0.22356246076162
H           -5.58177837735288        5.16505693430868        0.11566726117507
H           -3.88696307217697        3.20579463792032        1.83381149980315
H           -5.28444046039567        2.73644490566577        0.86316184023491
H           -5.52781093335445        3.68381512038553        2.31481223940958
H           -2.71333021193678        5.13534691960062        1.21026401289591
H           -3.20278745551166        5.90570496417854       -0.31847873908329
H           -3.72175590961253        6.61155521002826        1.20516434537900
H           -0.48822447571613        1.62843446105224        3.18856034940885
