72
 energy: 60.571279898909 xtb: 6.6.1 (8d0f1dd)
N           -1.62826971640894        1.60109059191634        2.66334450426456
C           -1.56729976761772        1.89616867950038        1.41840967450920
C           -2.50949255362773        1.54277656547579        0.43604583503060
C           -3.22036808665099        0.29463903637544        0.54290139251299
C           -4.10208955180246       -0.10819511525209       -0.47886642569072
C           -4.74134392189584       -1.32182122514962       -0.44675118818267
O           -5.63150992417265       -1.76822386560031       -1.38870705002141
C           -6.03103126918677       -0.89101577588658       -2.41015492886703
C           -4.49868986227273       -2.21496029452762        0.61670912898454
O           -5.20330015860107       -3.38434193286168        0.57172539731961
C           -5.05468930203221       -4.30527341661770        1.61538136067751
C           -3.59654821545439       -1.84716379370542        1.59576704067747
C           -2.98746929971232       -0.61547709045880        1.57561872771562
C           -2.25211013132151        2.14524094390955       -0.89211394325768
C           -1.27099499393679        1.23727464967176       -1.81792842848460
C            0.10816768624942        1.16569445018892       -1.37447661770461
N            0.67902167251191        0.09009016193163       -0.79060810505349
C            2.06202085477160        0.11788308689878       -0.39551219408338
C            3.01459873984432       -0.53611767195209       -1.41435016560828
C            4.43769896614365       -0.43466115916523       -0.93464158817713
C            5.15960839092642        0.72893468657186       -1.12022991073633
C            6.45856145778206        0.84869615478891       -0.64413496574494
C            7.05544051497644       -0.20079365566915        0.03039721369966
O            8.31736487491982       -0.19683998852322        0.53985167350567
C            9.10102540326175        0.95599402415343        0.36318992474675
C            6.32601143551220       -1.39479850676556        0.23124101127574
O            6.99052348353609       -2.37457812640019        0.90445958790590
C            6.34347742508591       -3.60491576395472        1.10688707336280
C            5.03108962207152       -1.49201427138405       -0.24639835398937
C           -0.00016561075364       -1.17762828986366       -0.72503202475466
C           -4.27805674753756        4.16446145045751        0.52804539659871
C           -4.77596664128646        3.31455058514065        1.65009296316518
C           -3.30475197359085        5.26256248004748        0.68375389200261
H           -4.30377331578558        0.54965728455363       -1.31886679565750
H           -6.43236028496047        0.05002596988549       -2.01514718691528
H           -6.81529462790301       -1.41291687284760       -2.95783446195040
H           -5.20668080117483       -0.66751960777716       -3.09592856216049
H           -5.31044193302954       -3.86876618348478        2.58614606023662
H           -5.75605094145282       -5.10966437209904        1.39073612476691
H           -4.03984870473099       -4.71827351585716        1.66092237308451
H           -3.34819763158924       -2.51482596290091        2.39991215778635
H           -2.27557340931071       -0.37315789957450        2.34284374244240
H           -3.15357968603534        2.27624386650141       -1.49220051604116
H           -1.75523804525598        3.11744225206151       -0.82740786187381
H           -1.71335025002582        0.25098198762855       -1.92575508802102
H           -1.30644104292675        1.70039565590973       -2.79766716363539
H           -0.68382241121106        2.41084590382916        0.99470696336921
H            0.77415896530225        2.00420538814878       -1.47220847325845
H            2.18167655516345       -0.39606807755913        0.56350404192856
H            2.35709934562683        1.14994472087154       -0.22464409495167
H            2.89187630441521       -0.01349238858646       -2.36401526754847
H            2.74191629735249       -1.58141050862440       -1.55680471314684
H            4.71446281168905        1.55658008470989       -1.65228655136745
H            6.99425310804429        1.77143642089050       -0.80283095401241
H            8.65142052808777        1.82745063744179        0.85232051330829
H            9.25998288311325        1.17570282137143       -0.69778754555375
H           10.06033915879318        0.74005753304179        0.83161456451668
H            7.06925284705933       -4.23393055032340        1.61919374289443
H            5.44946068407175       -3.49700574725230        1.73247392821701
H            6.06677240463083       -4.07621560156472        0.15831772483217
H            4.45916732238140       -2.39408184629598       -0.09304503288289
H           -0.22597687341996       -1.57070805158652       -1.72343192211251
H           -0.93777608881376       -1.09653829892699       -0.16591160128004
H            0.64259658464530       -1.88560186859303       -0.20937854746882
H           -5.02076876032497        4.40236316854052       -0.21081097956403
H           -3.94390310075032        2.99944614603978        2.23256880115053
H           -5.30632459288224        2.41846086780841        1.31123793813127
H           -5.48024428191491        3.93504091812545        2.22871717719346
H           -2.41747477192721        5.07667758307356        1.27296214037408
H           -3.01677645315243        5.57185483400356       -0.31578204693301
H           -3.85086139241974        6.07029387056682        1.17159875125609
H           -0.71418663117717        1.74752829149391        3.09561195318759
