72
 energy: 58.597549093118 xtb: 6.6.1 (8d0f1dd)
N           -1.60872744543733        1.50958193204482        2.65407321452221
C           -1.53958679850141        1.86857507346471        1.42474347007091
C           -2.47271110192287        1.50068214641173        0.43561644579307
C           -3.19400417890784        0.26006077574184        0.54117676550716
C           -4.08140472576975       -0.13638939122562       -0.47828221271712
C           -4.73263424376179       -1.34386976245304       -0.44146700710246
O           -5.61844894938318       -1.78821829276784       -1.38991404564395
C           -6.00453222996979       -0.91168385937165       -2.41737784433550
C           -4.50532844943059       -2.23561057325437        0.62649765963243
O           -5.22039063932530       -3.39910810770836        0.58205060841609
C           -5.08497585126414       -4.31951582649967        1.62780712555803
C           -3.60849299314639       -1.86977706488451        1.60984689618773
C           -2.98235727296445       -0.64706461911081        1.58222377423253
C           -2.24689198074519        2.12708203592819       -0.87978241426338
C           -1.26837876728743        1.23665280876828       -1.83349459879182
C            0.11252809016311        1.15427941884395       -1.40671872757623
N            0.67749288494473        0.09771374662176       -0.80110466739843
C            2.05931116946089        0.12802538056494       -0.41135655032990
C            3.01838421547019       -0.53361970263596       -1.42256595543763
C            4.44038397773997       -0.43339432576286       -0.94265341061050
C            5.16303898538775        0.72969821997076       -1.12742856517407
C            6.46026294364842        0.84839093736484       -0.64832644279671
C            7.05596207255510       -0.19991209494835        0.02807267465134
O            8.31877693629242       -0.19610168358196        0.54033074647909
C            9.10219041822467        0.95727602314187        0.36687269830138
C            6.32696363385724       -1.39360060639189        0.22681341608490
O            6.99208798522893       -2.37424229501325        0.89948415810996
C            6.34510465047527       -3.60468210912547        1.10255396317862
C            5.03306268013231       -1.49014636745920       -0.25304470733202
C            0.00079059099420       -1.16864529835523       -0.72707023153763
C           -4.32787158343393        4.24388453872150        0.52847533590715
C           -4.78499226806000        3.34936704638234        1.62887592945287
C           -3.32124283495356        5.31263981908944        0.68845116033328
H           -4.27812091782788        0.52123270073063       -1.31848401903634
H           -6.40128747142536        0.03458307619726       -2.02940027514779
H           -6.78972937779162       -1.43017917732521       -2.96731778872521
H           -5.17407761864655       -0.69704231691443       -3.09930411811747
H           -5.34256954451774       -3.87982545463550        2.59681004664825
H           -5.79290150526030       -5.11704406460697        1.39861700176348
H           -4.07415593434619       -4.74215550578208        1.68013996494297
H           -3.36804346189078       -2.53400050981702        2.41994248101391
H           -2.28977579620127       -0.39822946017085        2.36431429248186
H           -3.15324452934296        2.25741756391916       -1.46881358312197
H           -1.76064901738661        3.10340099335121       -0.80519072672694
H           -1.72837299313554        0.25748123815038       -1.93845821484236
H           -1.32197709818077        1.71811958187480       -2.80657643970954
H           -0.68868801273479        2.46527828082928        1.03042185329184
H            0.77737205286067        1.99504133666014       -1.50478063354160
H            2.17206963955773       -0.37855618792243        0.55214849987619
H            2.35690158062901        1.16102031214784       -0.24790350038284
H            2.90094305102063       -0.01878608712291       -2.37700080283460
H            2.73940000641911       -1.57793851812703       -1.55482117069309
H            4.72005028399497        1.55821021643994       -1.65947874996399
H            6.99724674810617        1.77055728221660       -0.80716062518803
H            8.65120391026114        1.82840498675315        0.85533514945057
H            9.26398113700895        1.17830756079204       -0.69357037335375
H           10.06001269047993        0.74052703626153        0.83816110987866
H            7.07112229366814       -4.23207502086562        1.61689842326368
H            5.45012408270372       -3.49746907716514        1.72700090597174
H            6.06962945128690       -4.07664010620226        0.15378259505897
H            4.46160390934991       -2.39255086415671       -0.10010943527727
H           -0.22628091845459       -1.56353781767964       -1.72369566305918
H           -0.93503047010866       -1.08539643600735       -0.16785608446358
H            0.64621833594678       -1.87281979330810       -0.21076888104068
H           -5.08084483934836        4.49819510061511       -0.19705259718150
H           -3.93384769257101        3.02294405138641        2.18273653464891
H           -5.31496128459013        2.46730593605695        1.26644990848781
H           -5.48790703573068        3.91925237309218        2.25601611383608
H           -2.44494375738924        5.08286690892733        1.27262536945781
H           -3.02185188314924        5.62416759097837       -0.30682778960499
H           -3.83052113383965        6.13410091044943        1.19225607473707
H           -0.70809321923729        1.66852438118866        3.10696444931372
