25
 energy: -42.037625049198 gnorm: 0.006171254147 xtb: 6.6.1 (8d0f1dd)
C            2.96482569109508        1.71748651326526       -0.15949897983221
N            2.30771158950842        0.50243964062764       -0.39055293363437
C            1.78915695608462       -2.67010257794686        1.56924260011886
N            0.69885977466597       -2.22220611451777        1.05113680299187
C            0.46350355817645       -1.12283616932908        0.17599823849722
C            1.37600487182209       -0.17485305114406       -0.05011191880967
C           -0.63329674311280        2.17314924533257       -1.01085319280224
O           -0.18407356957699        2.80317230483581       -1.87465639777346
N           -1.01058468379880        1.25479840647792       -0.22244061954705
C           -1.46221434958384        1.50885585191669        1.14886194443618
C           -1.53163328921483       -0.05474648579750       -0.80374897991528
O           -2.52189651674031       -0.03112544501436       -1.47094025549319
N           -0.79659013824494       -1.13222508540407       -0.46623658127952
C           -1.30362599746401       -2.41650592556526       -0.94852516513228
H            2.64026112570982        2.21834328317347        0.75650520682812
H            4.03621041774271        1.51217618678305       -0.10985082525333
H            2.79404949131936        2.37022315192432       -1.01999989177086
H            2.73334091283715       -2.18753965434227        1.35285371255262
H           -1.11197373954766        2.48274141562449        1.48029059703971
H           -2.55170609211074        1.48479642622392        1.19049131163004
H           -1.05873089518910        0.73576263605782        1.80272045623331
H           -1.99370993494000       -2.86215505886362       -0.22922723755199
H           -0.47447433928173       -3.09298052325333       -1.14358637382436
H           -1.85271195030284       -2.24894830959541       -1.87448291948073
H           -0.15627063574040       -2.72948211986529        1.27778301967398
