25
 energy: -42.167619458475 gnorm: 0.007785991886 xtb: 6.6.1 (8d0f1dd)
C            2.87607670925547        1.23625644716046       -0.25222491887382
N            2.18495464757227       -0.01964751766195       -0.16372429566328
C            2.75611313600228       -1.21131432949802       -0.27379889409999
N            1.82893745531271       -2.16768741893824       -0.15795157943911
C            0.57645921007001       -1.60643880139952        0.06379615662986
C            0.80649447881873       -0.18006580450588       -0.00552882516006
C            0.00058786930895        0.97318650954715        0.19714615925475
O            0.33042112582727        2.03921375597337        0.66517201306647
N           -1.42945198372756        0.91555819263840       -0.35295273181965
C           -2.43386411455878        1.58411813091784        0.47476927863710
C           -1.55062812442368        0.78246018384714       -1.60277782890725
O           -1.38841615125618        0.50283788567137       -2.71553390404205
N           -0.38812375686581       -2.39944691916088        0.36370342597206
C           -1.71084170640691       -2.05719445826335        0.71691498300773
H            2.70483531049919        1.82574104079801        0.64974471607820
H            3.94109360142126        1.05306503783213       -0.37285170037588
H            2.51134806063105        1.81346016468378       -1.10369817196618
H            3.80243637689635       -1.38061555754857       -0.43795638994416
H           -2.06210988002362        2.56758702124245        0.76437258027369
H           -3.36366977438037        1.68894452604600       -0.07780835241402
H           -2.60104533210695        0.99150971321519        1.37274882589161
H           -2.13605555600869       -2.91496115007843        1.24165130101132
H           -2.32199785944640       -1.87206488725974       -0.17328710172167
H           -1.75503819078652       -1.18109618013152        1.37407114886754
H            1.98191596247625       -3.16516704352707       -0.16282427636098
