  25
        -42.15409992
 C          3.2491284677        1.1075220463        0.0057293503
 N          2.2542169759        0.0683156174       -0.0301837809
 C          2.4673575645       -1.2088913225       -0.3245769504
 N          1.2969844804       -1.8722940294       -0.2840285158
 C          0.3111047593       -0.9832115739        0.0540362111
 C          0.9252358520        0.2382867550        0.2304365518
 C          0.2528219332        1.5272305079        0.6070325692
 O          0.5725218766        2.5922517426        0.1010568768
 N         -1.4150286271        1.0350593469       -0.0998830615
 C         -2.0714170033        2.0175350441       -0.5801977895
 C         -1.9756507241       -0.2561504756        0.0164364129
 O         -3.1534771420       -0.4775474223        0.0092870183
 N         -1.0238450858       -1.2632478016        0.1253872233
 C         -1.4764349462       -2.6412305617        0.1997380838
 H          3.6958858709        1.1742956734        0.9992816389
 H          4.0286204836        0.8965216400       -0.7226301013
 H          2.7717587614        2.0607542590       -0.2242099798
 H          3.4173767556       -1.6472638919       -0.5580837594
 H         -1.5572347762        2.9700906486       -0.6240223942
 H         -3.0885943894        1.9206813505       -0.9368443891
 H         -0.1528085543        1.4768742100        1.6411523261
 H         -0.9543861810       -3.1643955423        1.0003533059
 H         -1.3266197628       -3.1575415930       -0.7504673503
 H         -2.5435214233       -2.6289857541        0.4173407614
 H          1.1760088279       -2.8585481886       -0.4675188839
