25
 energy: -42.199043442122 gnorm: 0.007982522049 xtb: 6.6.1 (8d0f1dd)
C            3.41787148103928        0.70346955998808        0.07558508241206
N            2.45322176910491       -0.20125297286962        0.02832008401105
C            2.57667780724842       -1.54818205835647       -0.03735737724295
N            1.33585251482156       -2.13342265183893       -0.06753186666751
C            0.40669525435822       -1.16745572205088       -0.02784195347882
C            1.07358873054177        0.07327214628097        0.03166446666265
C            0.32157415656815        1.24549622027821        0.06213887038280
O            0.86366782825198        2.45473210964072        0.13895800515164
N           -1.04675553005236        1.09913770902332        0.01258284121401
C           -1.88221724647901        2.29311139420181       -0.01250241015232
C           -1.73051519057488       -0.12637238609377       -0.03224620004568
O           -2.92861092258198       -0.17794948962524       -0.06736890034221
N           -0.94671762719237       -1.27490137954935       -0.03051581138025
C           -1.59419655374643       -2.57230583474612       -0.04396639145201
H            3.16207594267004        1.74087738139998        0.13228024728286
H            4.43870414178974        0.37769086143066        0.05690199512549
H            0.20761212319481        3.17536377457875        0.17815471125925
H            3.50211991673122       -2.07950568733295       -0.05016662486496
H           -1.64000463326538        2.91321143479932       -0.87491569796194
H           -2.91624598711302        1.96328093241225       -0.10456603042228
H           -1.78572038405226        2.86123309561647        0.91701727502311
H           -1.31257674995874       -3.14260439545632        0.84210885685523
H           -1.32593282279204       -3.12437700845425       -0.94559335966910
H           -2.67008124190679       -2.40636687266504       -0.03557024269594
H            1.18034473749240       -3.12794161899154       -0.11439795109507
