72
 energy: -99.332083598915 gnorm: 0.002620654052 xtb: 6.6.1 (8d0f1dd)
N            0.10033669424339        2.51138541794829        2.00002996092207
C           -0.95704889639319        1.93392211982507        1.61529473022275
C           -3.33764765406287        2.18880783369685        1.00279142664162
C           -3.55256485463844        0.74225383226847        0.84209742284160
C           -4.04029558145531        0.23128109862154       -0.36411373418107
C           -4.26828990526229       -1.12515897474963       -0.52836905989263
O           -4.71410545708535       -1.71066330193349       -1.65835510803986
C           -5.08835587074907       -0.90521465764309       -2.75136694512847
C           -4.02256547581263       -2.01294844909601        0.55758821101841
O           -4.28252050300639       -3.30921453526519        0.30972211084853
C           -4.14209465837397       -4.25239072069206        1.34768371132197
C           -3.54942989455414       -1.49379272494691        1.75602446957457
C           -3.31053648988348       -0.13679641237324        1.89454926641217
C           -2.15274121400880        2.70058425983089        1.39236562921451
C           -0.62403727188858        0.25382329194550       -3.04010291501742
C           -0.56602241966495        0.77310566580754       -1.66315054865078
N            0.03321955320848       -0.12323137120860       -0.69108977906982
C            1.42650272669703        0.03820516639065       -0.38038666887859
C            2.41452802317849       -0.40915861705155       -1.48620874479951
C            3.82394830183313       -0.17352832985207       -1.03958870044874
C            4.43341994254852        1.05614930424293       -1.25762508294994
C            5.73012127242854        1.29337316750881       -0.83550014768053
C            6.45108102392770        0.30399325958115       -0.17763711956531
O            7.71346712312284        0.41698573591488        0.26456057133738
C            8.42053093691871        1.61574843954904        0.04105473812714
C            5.83132873752454       -0.95706404023797        0.06350842407318
O            6.59777244191763       -1.85473022213466        0.70735287734818
C            6.08852939776855       -3.14097005941177        0.97088330276208
C            4.53000371549056       -1.16865985202272       -0.36886677962120
C           -0.47715352221097       -1.47062352747490       -0.68402078007095
C           -4.56167024497459        3.04215378601633        0.78650101552523
C           -5.41929414355296        2.95033521804607        2.05694062652846
C           -4.26555443217363        4.49910855473445        0.44587693119342
H           -4.22214347070418        0.90843079216783       -1.18419059915704
H           -5.87525278570704       -0.19676889872249       -2.47656013695394
H           -5.46975091244745       -1.59281172382988       -3.50364032144321
H           -4.23181367531956       -0.36028636228145       -3.16128866730401
H           -4.79036697684069       -4.01336648882872        2.19552683496872
H           -4.44573428999406       -5.20531088619543        0.91867662616042
H           -3.10453989341345       -4.32202625106634        1.68848660298134
H           -3.37242375545420       -2.14489775509067        2.59652823894745
H           -2.96817621870838        0.24939667204775        2.84204027929531
H           -1.58027293039320        1.01353829247489       -1.31802822193656
H           -2.03595515203561        3.76288754259917        1.54000302015623
H            0.16217687606329       -0.35936007996342       -3.43790311924291
H           -1.47378608041357        0.45035739018389       -3.66334662423154
H           -1.02012855089227        0.85642400548932        1.41766071023166
H            0.00848699543013        1.71239438687307       -1.62263081932463
H            1.63716328086436       -0.53815807096856        0.52561085780098
H            1.60666430403352        1.09560334885519       -0.16426752342651
H            2.21618719999359        0.16783075971350       -2.38964470069568
H            2.25720251587774       -1.46761393420708       -1.69707867916246
H            3.89620681695897        1.83725577349169       -1.77342976969700
H            6.17750070088415        2.25480506729441       -1.02721033395894
H            7.94358455491969        2.46146677779902        0.54525818702932
H            8.51257041496995        1.83142080643419       -1.02750494691768
H            9.41019110623099        1.45436617661504        0.46391186634966
H            6.89190896009357       -3.67592269606842        1.47362206861992
H            5.21485588329976       -3.09876739240409        1.62874222179749
H            5.82692422174993       -3.66522815722531        0.04679576279237
H            4.05471369652161       -2.12211431276982       -0.19899524236519
H           -0.07739783665321       -2.09705205459585       -1.48957155843915
H           -1.56085994608848       -1.43656284307188       -0.78463160878294
H           -0.22795690049701       -1.93826995662334        0.26884943399776
H           -5.14113786630375        2.60414534512846       -0.03351423988212
H           -4.87441557126406        3.35404419547820        2.90698312803842
H           -5.68206858814669        1.91673293217440        2.27138193195358
H           -6.33423695154098        3.52230146623959        1.92847333166890
H           -3.85318017884300        5.02709142079153        1.30120500753385
H           -3.56592296976818        4.57118991813281       -0.38365120753055
H           -5.18850429078330        4.99792783082212        0.16070066674702
H            0.92334246026087        1.94197612974804        2.15945307407500
