72
 energy: -99.405193992442 gnorm: 0.002114958192 xtb: 6.6.1 (8d0f1dd)
N           -1.30201100280603        2.91850418611014        1.56483091293871
C           -1.43764885494786        1.66143745741477        0.88029179123507
C           -2.77560796998264        1.54617199168773        0.08193085690505
C           -3.42505030370821        0.16467022707199        0.28266943242689
C           -4.14350928112260       -0.41050780780837       -0.76703041060378
C           -4.79837782548725       -1.62414082534542       -0.62425825539736
O           -5.52071388876766       -2.23548213910045       -1.58324094997101
C           -5.72586006101342       -1.58759523724932       -2.81645425941162
C           -4.73121713712773       -2.31397826476956        0.61674709006580
O           -5.37648020723404       -3.49300379551747        0.66472412275105
C           -5.38321887796534       -4.22315238753170        1.87015933682795
C           -4.03382034985425       -1.72573119355808        1.66083735389599
C           -3.40287368152915       -0.50080093920028        1.50070602462997
C           -2.35178092839370        1.72764169951925       -1.32216318503162
C           -0.89999390495667        1.68110791419443       -1.53887539314894
C           -0.27520757612063        1.41044120975187       -0.15627187722679
N            0.31234256684045        0.11243667442188        0.02757313846164
C            1.73788373635865        0.02169724575981        0.17606563522979
C            2.53378396206985        0.12655917309813       -1.14851306339048
C            4.00270432720962        0.21260303720646       -0.86559728668504
C            4.68750695713791        1.41201519175080       -0.99805882524929
C            6.04127081278320        1.49595959908513       -0.71400517550997
C            6.74126105179274        0.38062747734160       -0.27441695824575
O            8.04980122223515        0.34482310624921        0.03205535835599
C            8.82342890708606        1.51436222875691       -0.10693882648265
C            6.04599144382752       -0.85346220314916       -0.12224282177420
O            6.79665293473632       -1.88079420237191        0.31750531860655
C            6.19783735655088       -3.13933359288040        0.51661254839910
C            4.69473495104532       -0.91403918980099       -0.42471675156087
C           -0.34223391467742       -1.04183683278616       -0.52829047702505
C           -3.91968966230906        2.56631312243963        0.42713898289997
C           -4.33597729736314        2.52233429879357        1.89155570547842
C           -3.60926588015790        4.00974049779228        0.02237046338325
H           -4.19672981719896        0.10102176352836       -1.71291028054389
H           -6.21822802861431       -0.61946175889121       -2.68308184398635
H           -6.37728758513303       -2.24664610710353       -3.38712140097732
H           -4.78589849456047       -1.44998342300659       -3.36035980835161
H           -5.85188939843737       -3.65558172325573        2.67953418204751
H           -5.97176348846069       -5.11585618774291        1.66785583080192
H           -4.37101813376772       -4.51513626437442        2.16648027338800
H           -3.98442991624298       -2.21002277363217        2.62233735166852
H           -2.91028768984363       -0.07802787026182        2.36049090951436
H           -3.03441317479982        1.95152375190282       -2.12094640411196
H           -1.11745768511979        3.69126424211692        0.93945073473364
H           -0.62382067929438        0.91350722713894       -2.26987631897185
H           -0.53668521376073        2.62864212746569       -1.95751230632359
H           -1.37486866783328        0.87806146692477        1.63437586723441
H            0.51322096272894        2.14084123086600        0.04730307893081
H            1.96767621455235       -0.93451391414043        0.65241203318619
H            2.07121065110919        0.81819569258711        0.84668711941694
H            2.20820374757766        1.01650052931478       -1.68948681510590
H            2.32067097101425       -0.75062103044643       -1.76181294470559
H            4.16785684326021        2.29471366980258       -1.33859979211779
H            6.54597838798946        2.43997982658929       -0.83881126285217
H            8.46162600795683        2.31402837351654        0.54640071983992
H            8.83444238908405        1.86545219510282       -1.14312928224678
H            9.83222378949251        1.23433885021851        0.19020075872597
H            6.99268831984769       -3.78640479928691        0.88254915795094
H            5.39928480533957       -3.08879995051932        1.26352720827389
H            5.80062537956670       -3.54715034681800       -0.41796556307809
H            4.16329323996507       -1.84765866034003       -0.32911402723045
H           -0.04167424485539       -1.24825737672450       -1.56374495395353
H           -1.41978052985206       -0.90209022320445       -0.49937451405028
H           -0.08949099862698       -1.91603156606711        0.07312728340042
H           -4.76929586678079        2.23056266567707       -0.17916574326506
H           -3.48929968379634        2.75899348664105        2.52917308561108
H           -4.73231144147123        1.54814510320479        2.16354179537851
H           -5.11426442384879        3.26252977434808        2.06076319384189
H           -3.07673443725774        4.52805422127406        0.81285636537277
H           -3.02364471877593        4.05294121580397       -0.89316505109703
H           -4.54311234742263        4.54034926839110       -0.14911899789990
H           -0.59276107087440        2.88114908849709        2.28479564834686
