25
 energy: -42.008719338088 gnorm: 0.006422490171 xtb: 6.6.1 (8d0f1dd)
C            3.00651537931020        1.66538248467798       -0.21689220055497
N            2.34738815829692        0.44623825907281       -0.44190932283609
C            1.70721603105197       -2.69493300945022        1.59388786650359
N            0.64664530266365       -2.17138788843604        1.10820584681147
C            0.45656184136161       -1.08546314546295        0.18491206004334
C            1.40489800894999       -0.19915614596279       -0.08840726009547
C           -0.65337405198935        2.21324044233730       -0.91912936627059
O           -0.21857750254550        2.94154545814259       -1.70029249112298
N           -1.03266476547484        1.27493027785931       -0.17261889175960
C           -1.49227492569729        1.46267723180564        1.20951243067705
C           -1.54028699545884       -0.03868807584305       -0.80239676635603
O           -2.52831925846544        0.00667511202799       -1.46118432147940
N           -0.79209734144189       -1.09878436431093       -0.49127979638431
C           -1.24919268630626       -2.38259983682063       -1.02897241038664
H            2.62350136802109        2.22008001497450        0.64288497731564
H            4.06591736659946        1.44535443038995       -0.07674948776353
H            2.91671813892344        2.26753429622446       -1.12337821867145
H            2.66685985409717       -2.28069597651634        1.29681990472425
H           -1.17110961619882        2.43201770027115        1.58205561337858
H           -2.58267768547796        1.40635670512807        1.23854170579317
H           -1.06925961155874        0.67490444130197        1.83224378183651
H           -1.93794484308297       -2.87207306620604       -0.33899803394716
H           -0.39246982981605       -3.02474873289015       -1.21902026432461
H           -1.77923398050533       -2.20434073972143       -1.96371584481980
H           -0.24230683929233       -2.58582732779367        1.38705210658517
