25
 energy: -4.572938480131 xtb: 6.6.1 (8d0f1dd)
C            3.40438323982567        1.10899409755722        0.08540265963089
N            2.32908028606460        0.15802195219472        0.05271669348728
C            2.59514993020876       -1.20138192665045        0.07973338552025
N            1.40633430931236       -1.89231188311781        0.01110101756547
C            0.39777375639902       -1.00351052685021       -0.00531806796743
C            0.92201515277789        0.28927522230212        0.02082045941945
C            0.07088693652327        1.42213279229653        0.00096933621922
O            0.41476965133862        2.60682584122732        0.00036986701544
N           -1.30904602840732        1.04952347337938       -0.03148094215337
C           -2.28091169778099        2.12647841404392       -0.05152687453900
C           -1.84312084312313       -0.19839838297285       -0.04968282579585
O           -3.03976002947920       -0.40205761491710       -0.07447545681387
N           -0.94110765434169       -1.27317593269926       -0.03881946619498
C           -1.45249157587236       -2.62368989406497       -0.06445289102688
H            3.90999061915827        1.12177652970075        1.05416446336791
H            4.15073070505812        0.88632892742340       -0.68852236554076
H            2.96546305173478        2.08424127690804       -0.05974936446114
H            3.57001904179876       -1.61222918133517        0.07583542080964
H           -1.73197340580749        3.06020895436802       -0.02787730615184
H           -2.88604571786242        2.06590575302933       -0.95624393956681
H           -2.93901323740869        2.04971373400283        0.81397178427501
H           -1.14927478869150       -3.17555920503080        0.82877635836962
H           -1.11609073881850       -3.15455432300277       -0.95805308445186
H           -2.53824250063558       -2.55021017112358       -0.08827521887222
H            1.32845488922167       -2.89711821239073       -0.00914980818275
