25
 energy: 109.860490234941 xtb: 6.6.1 (8d0f1dd)
C            5.02073939349309        0.25031569709994        0.00826424260279
N            1.92937762602857        0.67951224202930        0.11403140613212
C            2.37851908985947       -0.59259987539946        0.14214768861005
N            1.33851097037990       -1.45729323308822        0.02835747320776
C            0.20538802861430       -0.72047690428306        0.00478210835800
C            0.55022642695766        0.62802273438807        0.06087833611722
C           -0.43159988319027        1.65448906951673        0.01800751780238
O           -0.26880799540807        2.86298276053385        0.05751949474426
N           -1.73327695420110        1.09518801271179       -0.03642908563703
C           -2.84124526887713        2.02991052348573       -0.05070391751172
C           -2.09726177566851       -0.21873325771721       -0.08047467684428
O           -3.24953413814625       -0.58536073155959       -0.13263086949429
N           -1.06906309378589       -1.17202685762388       -0.06158932567285
C           -1.38248231312779       -2.58214209068996       -0.09706437944748
H            5.53684740716212        0.39435215193491        0.95455780020299
H            5.72343037983160       -0.22186558263323       -0.68215178795764
H            2.75057044226374        1.32249592023572        0.12528582746296
H            3.45524651240508       -0.77750335263229        0.08320859868479
H           -2.44677129483246        3.04625294057416       -0.03380842415997
H           -3.43529134120747        1.86165309329951       -0.94879262277945
H           -3.48398760141799        1.85274999912852        0.81271509929484
H           -1.01348797607033       -3.08198528467583        0.80163759222288
H           -0.94323869157700       -3.04389318455052       -0.98465126585100
H           -2.46793648101255       -2.66580479842503       -0.13454353478177
H            1.44595109536530       -2.46043637948975        0.01286505082685
