25
 energy: 2.173204853900 xtb: 6.6.1 (8d0f1dd)
C            3.55981490143713        1.03744965459372        0.07466843392937
N            2.35034830927101        0.21901633935219        0.07767333848925
C            2.56739453142012       -1.14509295834310        0.07480856971356
N            1.38536354846939       -1.84035478419085        0.02153812104355
C            0.38769970480610       -0.94483902314394        0.00261885681875
C            0.91380587347731        0.35629196439128        0.03047108898489
C            0.02030437464522        1.45746759217218        0.00751318801103
O            0.32221808268583        2.65159953260077        0.00565643110127
N           -1.35784120682028        1.04746271507789       -0.03202811186555
C           -2.34453320485468        2.10797511831313       -0.05457797173795
C           -1.87487687606303       -0.20370103315990       -0.05317053002153
O           -3.06738111997909       -0.42935669507957       -0.08213171871201
N           -0.94939052918653       -1.24812188969136       -0.03936208577113
C           -1.42981316424398       -2.61049733662746       -0.06979092869705
H            4.09110258898805        1.00921702462801        1.02826533868755
H            4.27032666168145        0.72965572584035       -0.71590286298480
H            3.24389374848924        2.06207647039226       -0.03657164261822
H            3.54554125218469       -1.53279171489846        0.09409795913847
H           -1.79896185281834        3.03742630495546       -0.03345974172438
H           -2.95055245178178        2.04878545403818       -0.95914243968474
H           -3.00362220965546        2.03611393137141        0.81107031692633
H           -1.12283020295643       -3.15961964127011        0.82404428740549
H           -1.08218294170074       -3.13814662966771       -0.96096492294247
H           -2.51703445537384       -2.56087194493601       -0.10211107029857
H            1.28834289167179       -2.84524716122673       -0.00119762626544
