25
 energy: -1.616954367549 xtb: 6.6.1 (8d0f1dd)
C            3.48264605209053        1.07611009968194        0.08278756993245
N            2.33575720498195        0.19708236290107        0.06650561795543
C            2.57867633470099       -1.16841123386502        0.07501635187628
N            1.39461866040249       -1.86496435529330        0.01579501958177
C            0.39168428841543       -0.97348318097188       -0.00165172616672
C            0.91591968491951        0.32383756702075        0.02537645544583
C            0.04297670237227        1.43933213446305        0.00406899705661
O            0.36794140201571        2.62872965230710        0.00259774825964
N           -1.33442436095927        1.04805543879067       -0.03208324994311
C           -2.31310151390025        2.11653158509069       -0.05313848880627
C           -1.85986989160981       -0.20116234003648       -0.05155579680085
O           -3.05456904846146       -0.41527839833984       -0.07820391349851
N           -0.94611897372004       -1.26060058794011       -0.03919515064592
C           -1.44128433056982       -2.61715887161648       -0.06670385396520
H            4.00266334955241        1.06673982880580        1.04303120690957
H            4.21039488682890        0.80744803157191       -0.69892746433477
H            3.10633791294597        2.07787808271590       -0.03948174742313
H            3.55128519624752       -1.57382335715198        0.08290454969459
H           -1.76323550702228        3.04594092635227       -0.03100271363416
H           -2.91860753904780        2.05677393589655       -0.95762703756787
H           -2.97127592951991        2.04245394540486        0.81258101310640
H           -1.13573273783175       -3.16739062057645        0.82681633952106
H           -1.09940564316104       -3.14643105514733       -0.95902265633821
H           -2.52756473670390       -2.55531517509239       -0.09406509931043
H            1.30772161327184       -2.87038454809552       -0.00517795094301
