25
 energy: 13.398865714864 xtb: 6.6.1 (8d0f1dd)
C            3.69478360918189        0.93613231952966        0.06339188802561
N            2.37073738375274        0.27908493011417        0.13606614400069
C            2.54426595398901       -1.08980752577487        0.11168515984917
N            1.36853916081022       -1.78845630376484        0.03628597553445
C            0.37876600775004       -0.88800683852163        0.01008775729387
C            0.90434108797238        0.42154082281397        0.04246476587004
C           -0.02821996689633        1.49486890490890        0.01293404452969
O            0.22937268947706        2.69638010085184        0.01133943383983
N           -1.40556333734323        1.04842186058851       -0.03185408390412
C           -2.40620778649858        2.09433166520546       -0.05684934508894
C           -1.90426455259026       -0.20804521535645       -0.05661501121409
O           -3.09194359250413       -0.45753497209115       -0.08977891773451
N           -0.95538384126286       -1.22372069543664       -0.04116479210971
C           -1.40705734244937       -2.59763308460732       -0.07571551806760
H            4.26381082288201        0.90818955946332        0.99627275380672
H            4.36245549186250        0.53065867659407       -0.71576220763793
H            3.49914514153346        1.97992427139758       -0.08030864671486
H            3.53542765044311       -1.44465099999741        0.10834823118398
H           -1.86047155666315        3.02150677462933       -0.03744945853175
H           -3.01333245562527        2.03436389269586       -0.96140894770086
H           -3.06747105505975        2.02496460692097        0.80818090139098
H           -1.09769555453674       -3.14560071764233        0.81822512767921
H           -1.05130425949324       -3.12224699038652       -0.96517323340846
H           -2.49518660012259       -2.56410897559432       -0.11123519207375
H            1.25365278940603       -2.79251987422618        0.00944758761497
