25
 energy: 48.010494586321 xtb: 6.6.1 (8d0f1dd)
C            4.57340694642335        0.47789249910555       -0.01879926121133
N            2.06273292964874        0.53772622562710        0.17565236919086
C            2.40016533187525       -0.72510073967878        0.19287455345191
N            1.33641134932335       -1.56695636693382        0.06764868017779
C            0.26892925877679       -0.73650908339952       -0.00019158465381
C            0.70409775014777        0.58124369086410        0.06221408091656
C           -0.27133272369657        1.64589045443047        0.02549897895782
O           -0.09296485620821        2.83754255819595        0.05071116821443
N           -1.57755345538135        1.10607369798492       -0.02956029128168
C           -2.65477385081914        2.07286097087941       -0.05721037217581
C           -2.00511254255436       -0.19905786697765       -0.07423413917453
O           -3.17131516897263       -0.51235632010788       -0.11847020684098
N           -1.01371099958401       -1.15456224561713       -0.07992267616263
C           -1.35080061936499       -2.55851302994662       -0.10309820512105
H            4.95841453173200        0.40662168847797        0.95077452141133
H            5.07269667223919       -0.05386655414029       -0.78707709944078
H            3.66079231352212        1.05413058767106       -0.05256971170098
H            3.45237438296951       -0.96895874904701        0.17166165515402
H           -2.20067311320932        3.05905946551435       -0.04076822619349
H           -3.24948773906778        1.93758868103981       -0.95872590892473
H           -3.30437615012251        1.93252569864114        0.80520516111670
H           -1.00976005621549       -3.07429761515191        0.79988370892944
H           -0.94291854071819       -3.05400048595864       -0.98369943594180
H           -2.43468480186141       -2.62419042652821       -0.15255065042018
H            1.32325688804984       -2.57597721716231        0.01952203335890
