25
 energy: 50.527532446330 xtb: 6.6.1 (8d0f1dd)
C            4.36622595219074        0.62150366869134       -0.00253491023584
N            2.16813179579179        0.43934936078987        0.23963602965849
C            2.44659444181302       -0.84170341970629        0.20911306097387
N            1.35351184813500       -1.64720336581707        0.06344056999110
C            0.31416987709497       -0.78401297266899        0.01437457424293
C            0.79907707123213        0.52210578159814        0.07501193977221
C           -0.17434815500341        1.59640249721459        0.02912783099048
O            0.03916293990306        2.78382783576402        0.03640369964445
N           -1.49461680641715        1.09195220905541       -0.03018984791023
C           -2.55442624127694        2.08064410179847       -0.05942065706657
C           -1.96258534469609       -0.20019675080108       -0.06467468971235
O           -3.13956793984580       -0.48711878011950       -0.10560031762732
N           -0.98401927263375       -1.17241872926671       -0.05442733597819
C           -1.36575633193799       -2.56925718685559       -0.08609970602005
H            4.65657498510217        0.50885540725261        0.99022925919539
H            4.81053656708366        0.07973392469950       -0.78137546617529
H            3.81192896937117        1.47430112692134       -0.15933801940921
H            3.46177774756490       -1.15220547984142        0.15449880148894
H           -2.07949442753607        3.05642177418258       -0.03998098771043
H           -3.15201996493835        1.96099836474195       -0.96228976371219
H           -3.20697843073631        1.95237947313179        0.80306454703872
H           -1.04022919894960       -3.09788251283384        0.81330656573160
H           -0.98288627968207       -3.07426748214388       -0.97309095492782
H           -2.45148386411775       -2.59470961127553       -0.13269017996376
H            1.27862441829160       -2.65428909509790        0.02693904500127
