25
 energy: 51.333139271391 xtb: 6.6.1 (8d0f1dd)
C            4.24740838653101        0.69019963379011        0.00366335787274
N            2.20934252815131        0.39265947533999        0.26075113052696
C            2.46231647923803       -0.89580864157049        0.20375598955114
N            1.35626031635219       -1.68001288751706        0.06147314367791
C            0.32809039052150       -0.80429714850348        0.01561455147665
C            0.82762139884821        0.49874432481963        0.07807520374765
C           -0.14549218821271        1.57433952049072        0.03023185250149
O            0.07980683179296        2.76286328064302        0.03346780207948
N           -1.47685051258606        1.08160042752205       -0.02935368240483
C           -2.52497918711624        2.08234513476870       -0.05973147924314
C           -1.95111930578893       -0.20483702555949       -0.06292993980287
O           -3.12842351364464       -0.49780595372184       -0.10404185158025
N           -0.97469778971250       -1.18232878968852       -0.05032668045432
C           -1.37294429158513       -2.57435565206982       -0.08337616648054
H            4.56734305280869        0.57943922804513        0.99296125414688
H            4.71051785121151        0.15277463287121       -0.77450599152367
H            3.82140672273411        1.61523531070163       -0.16866878424462
H            3.47289354298784       -1.21658609754301        0.14418319021798
H           -2.03674664930713        3.04987578955848       -0.03990092992675
H           -3.12494533602667        1.98054997180893       -0.96404291200103
H           -3.18237349651158        1.97298730728046        0.80244091585196
H           -1.05235290860655       -3.10673212000042        0.81523145717034
H           -0.99611229867394       -3.08564955814860       -0.97025389839851
H           -2.45898652595857       -2.58513083306273       -0.12740550144040
H            1.26315874678025       -2.68515372755808        0.02414200024606
