25
 energy: 39.430622552985 xtb: 6.6.1 (8d0f1dd)
C            3.89632806552924        0.74840741369245        0.03732523449755
N            2.39332643618858        0.34675774423833        0.25913015429532
C            2.51446523500944       -1.01921796319864        0.21970597685508
N            1.36181102768089       -1.71655684588372        0.05401159934987
C            0.37037334508935       -0.81415281349432        0.01367088841483
C            0.89111043734403        0.50409852245428        0.05211387671230
C           -0.09022954400336        1.54891371034298        0.01990886496657
O            0.12527930277895        2.75452177841932        0.02583271328881
N           -1.46170000446645        1.06264395813163       -0.02977469604389
C           -2.49189431156963        2.08224858029992       -0.05823852853094
C           -1.93597268358487       -0.20767039322495       -0.06130080476072
O           -3.11628877455320       -0.49781755092970       -0.10207239331468
N           -0.95243302279695       -1.18654835585390       -0.04513427438925
C           -1.37259550537807       -2.57458564317609       -0.07999251884447
H            4.42925768042641        0.66613045904726        0.97601953109027
H            4.52274449197132        0.25353940419559       -0.72836628345396
H            3.77294567115406        1.76486881128575       -0.15198699402902
H            3.51430555273124       -1.32333703950870        0.10763944849371
H           -1.98891784262136        3.03955545403395       -0.03935108345572
H           -3.09844764005131        2.00115472483861       -0.96213461930048
H           -3.15281590330555        1.99424939978053        0.80539212687765
H           -1.06150735586418       -3.11700948960701        0.81668181871434
H           -1.00701748202457       -3.09611187635148       -0.96760783393028
H           -2.46091037337888       -2.57204234457615       -0.12125946841258
H            1.24959989582987       -2.71881321620147        0.02153728284556
