25
 energy: 104.292027635588 xtb: 6.6.1 (8d0f1dd)
C            5.15518413276316        0.01291654226858        0.05309333252838
N            1.91062628763074        0.67442995696327        0.09074421244238
C            2.39101233797588       -0.58336076821770        0.08453306235536
N            1.35291976929334       -1.44799883938950        0.03411108156386
C            0.19995722981151       -0.74108975166198        0.00056163864857
C            0.53243666650822        0.60843332724922        0.03179245193699
C           -0.44036444898139        1.64123994018415        0.01206915522765
O           -0.24163936092045        2.84545396791664        0.04649873715154
N           -1.74860394970158        1.09622775314962       -0.04454652125482
C           -2.86891152707737        2.02518589503607       -0.06542269365825
C           -2.10847549884291       -0.22471101410175       -0.07545370333236
O           -3.26310881082998       -0.58508224967362       -0.11827967588654
N           -1.08330962843946       -1.18058233920634       -0.05146298489548
C           -1.40277514828211       -2.58966355493337       -0.08702732723164
H            5.67599918149464        0.47205643391755        0.90664858580162
H            5.90407038900499       -0.29590175427023       -0.68596039454820
H            2.56121305192999        1.44735264879660        0.12633892790240
H            3.51684342673158       -0.68738023604445        0.09155439511684
H           -2.48888522260022        3.04333607756202       -0.04616927980179
H           -3.45920538030071        1.86078612114198       -0.96552601464232
H           -3.50829637833754        1.84990177458980        0.80079580065820
H           -1.03804946070770       -3.09308990621895        0.81110562005975
H           -0.97162898127109       -3.05988312229303       -0.97460026293951
H           -2.48800638470483       -2.67160484751348       -0.12480399486305
H            1.46882085823173       -2.44667920494904        0.01705700756552
