25
 energy: 48.428435405233 xtb: 6.6.1 (8d0f1dd)
C            4.52470290044142        0.53083804418952       -0.01750834133492
N            2.09469613084455        0.50974854657497        0.20010488895653
C            2.41609588322046       -0.75918547737617        0.20031673461512
N            1.34262956111793       -1.59102032733469        0.06446851366690
C            0.28533127145896       -0.74963787912427        0.00241969089182
C            0.73540828149313        0.56465288793700        0.06290093554584
C           -0.23717993876929        1.63377715918506        0.02082551082025
O           -0.04701411490868        2.82405189922009        0.04570573981475
N           -1.54757181628149        1.10355848119547       -0.03089264939290
C           -2.62098352875859        2.07491099749049       -0.05934428588392
C           -1.98804066027698       -0.19809981286273       -0.07009164108460
O           -3.15885357148027       -0.49552079992600       -0.11157237770639
N           -1.00195525574489       -1.15944699396035       -0.07252663280581
C           -1.35188708103792       -2.56171266194279       -0.09573001707082
H            4.86015100320935        0.42625344597728        0.96387390532999
H            4.98617133020128       -0.01504698227605       -0.79115571927030
H            3.69624048062126        1.18202402405762       -0.08421628291206
H            3.45418028565245       -1.02629875898069        0.16684812421667
H           -2.16171389628467        3.05880166734687       -0.04238860287123
H           -3.21619462300955        1.94108188281747       -0.96111541767657
H           -3.27088540126405        1.93579639075643        0.80295583846094
H           -1.01752542695528       -3.08439887686893        0.80487171304571
H           -0.95398431294683       -3.05999011478745       -0.97923432421552
H           -2.43638690978657       -2.61250636636048       -0.14641278143207
H            1.30374573397085       -2.59951354566997        0.02228454972471
