25
 energy: 7.086671503911 xtb: 6.6.1 (8d0f1dd)
C            3.62517064424351        0.98677525227048        0.06749004324705
N            2.35792010566640        0.24943895818489        0.10297789923393
C            2.55517727888288       -1.11669129021527        0.08818641704779
N            1.37640041567113       -1.81420143054240        0.02852433422449
C            0.38215808100954       -0.91669577975802        0.00664611670914
C            0.90674587041159        0.38922690100263        0.03656047820150
C           -0.00367496697280        1.47745073887029        0.01036115824291
O            0.27705042457759        2.67527232920028        0.00855090826304
N           -1.38153605677727        1.04678420445994       -0.03200636110239
C           -2.37557529318285        2.09827808680428       -0.05589995882421
C           -1.88982889183205       -0.20646597879886       -0.05497348088901
O           -3.08001978166492       -0.44356624417282       -0.08606513955822
N           -0.95386785816483       -1.23666952181809       -0.04037875876573
C           -1.41914373067001       -2.60460756380616       -0.07299411753684
H            4.17407992140451        0.95654147749234        1.01239303097939
H            4.31871791872567        0.63287630696512       -0.71921216981812
H            3.37088064121167        2.02486802545820       -0.06386604217411
H            3.53993026251186       -1.48798681770518        0.10205545232949
H           -1.82273191081710        3.01979415705667       -0.03665092341880
H           -2.98195062684833        2.03896929082012       -0.96036107940810
H           -3.03521691234405        2.02834542991946        0.80971938391256
H           -1.11073706315758       -3.15183160679723        0.82167620446739
H           -1.06618104116903       -3.12999613686764       -0.96307872572617
H           -2.50725202623492       -2.56558314970965       -0.10926287590809
H            1.27042011642854       -2.81880894754633        0.00374888169692
