25
 energy: 28.543966906855 xtb: 6.6.1 (8d0f1dd)
C            3.82551508224336        0.81201761369158        0.04981215803757
N            2.39100825335979        0.32277277056656        0.22341625916668
C            2.52705649737745       -1.04472386334134        0.18290901446010
N            1.36641818385978       -1.74130381383113        0.04551314155727
C            0.37578720093307       -0.83789196677924        0.01252957056079
C            0.90056998582091        0.47816057271062        0.05258849048653
C           -0.07089863492139        1.53009273775355        0.01825470143546
O            0.15839735304038        2.73645050414139        0.01733813275105
N           -1.45050929517604        1.05273953105430       -0.03169359053359
C           -2.46542217238603        2.08793732108027       -0.05865717665635
C           -1.92866398639446       -0.21268506610988       -0.06063886633038
O           -3.11104631991953       -0.48785728811199       -0.09830571762766
N           -0.95082705364503       -1.19972679216142       -0.04328240366937
C           -1.38269545974289       -2.58236184446714       -0.07833502940802
H            4.36341426723526        0.73595285722196        0.98983698951607
H            4.46052433562735        0.34207968033901       -0.72481270923024
H            3.71132006422859        1.84733169549714       -0.11415932248455
H            3.52651478264985       -1.36319238479629        0.10691889104744
H           -1.94488921964381        3.03284237767496       -0.03887456756249
H           -3.07324296140420        2.02522555068729       -0.96339047310638
H           -3.12825861618438        2.01808300470798        0.80580566176251
H           -1.07275282259910       -3.12767172876256        0.81714592486237
H           -1.02072916723487       -3.10762830543621       -0.96624189354968
H           -2.47075808660178       -2.56812999019748       -0.11632826250380
H            1.24178824711446       -2.74356369295532        0.01807609463126
