25
 energy: 20.486462230649 xtb: 6.6.1 (8d0f1dd)
C            3.76070272057248        0.87445777872557        0.05991515764197
N            2.38294931857194        0.30012384489629        0.17960605338164
C            2.53519579216140       -1.06886614331193        0.14427067332206
N            1.36417229676841       -1.76476772866178        0.04110807019165
C            0.37751124509923       -0.86091898558952        0.01173672255033
C            0.90669423940422        0.45048753474294        0.04971297314414
C           -0.05253104604249        1.50948713767605        0.01563242123362
O            0.17818252114928        2.71478050768897        0.01410856667841
N           -1.43184762814615        1.04898266397851       -0.03184310687739
C           -2.43750492750510        2.09172766974975       -0.05826752609026
C           -1.91905254160919       -0.21100728028440       -0.05867186614703
O           -3.10382268760936       -0.47347087146471       -0.09380818577030
N           -0.95409916878547       -1.21034364637947       -0.04183727040891
C           -1.39449594069017       -2.58938326982695       -0.07697092781817
H            4.32415789527642        0.83009007868205        0.99476545971593
H            4.40785692305831        0.43431756089462       -0.71953649550164
H            3.60818073147436        1.91645982623196       -0.09106058805366
H            3.53214574067627       -1.40447073653980        0.10979682312328
H           -1.90252057742687        3.02670183908686       -0.03849757080641
H           -3.04544838225945        2.03383670130027       -0.96323281373551
H           -3.10035089431712        2.02680925547638        0.80662918218012
H           -1.08488958992975       -3.13711277151421        0.81740222277765
H           -1.03535488380296       -3.11553683152241       -0.96553647769511
H           -2.48257726768149       -2.56493030569385       -0.11327663446478
H            1.23668007497988       -2.76729726019044        0.01445376465530
