25
 energy: 61.177612320235 xtb: 6.6.1 (8d0f1dd)
C            4.70454633320097        0.41089374985362        0.00592113976057
N            1.98038988994595        0.61892927398570        0.14729159914935
C            2.37009271476069       -0.62759310321371        0.15299927257109
N            1.32663127839092       -1.49728857332620        0.05994972610284
C            0.22389020016928       -0.70752415645768        0.01140023285305
C            0.61978318107147        0.61444182798953        0.09299467121245
C           -0.36853002136196        1.66587499119911        0.05617634216229
O           -0.22549629883586        2.86313162191779        0.06615541093931
N           -1.66134649119314        1.10460439761311       -0.02267855417015
C           -2.75318365572507        2.05207663563172       -0.05016769837873
C           -2.05486757193440       -0.21015472114984       -0.07406128324928
O           -3.21252797672756       -0.55450554142716       -0.12597179510192
N           -1.04581377365060       -1.15390075095468       -0.06079845897996
C           -1.35577458544336       -2.56442344215730       -0.10589713839457
H            5.22159282972064        0.34038598848948        0.92979571116441
H            5.30554950337365       -0.07107944250350       -0.77202785857107
H            3.56284927457305        1.03337652776614        0.05923564156207
H            3.45627975691353       -0.79613767157842        0.15812073086374
H           -2.32787406141568        3.05449934879250       -0.03984069840618
H           -3.34393233621778        1.89463014558992       -0.94993269903036
H           -3.39528855794527        1.89158518925271        0.81494870068121
H           -0.98512920411368       -3.06211073145852        0.79108364468169
H           -0.91892830437149       -3.02733131010381       -0.99473692009977
H           -2.43969548297573       -2.65113410476882       -0.14924494117583
H            1.37191211614631       -2.50376947561658        0.00570663836676
