25
 energy: 107.378230637352 xtb: 6.6.1 (8d0f1dd)
C            5.08201976440353        0.11675681736184        0.04933886237648
N            1.91230130771880        0.68115595815986        0.09358155049328
C            2.38309959440390       -0.58026242872008        0.08151732006579
N            1.34923301756022       -1.45485275970427        0.04690596739526
C            0.20472670652808       -0.73577572624661        0.01173995396541
C            0.54009767442868        0.61258419375235        0.04477011151885
C           -0.44292509873105        1.63863105175297        0.00427891500651
O           -0.24769451092688        2.84388231245725        0.04990406531032
N           -1.75169903930396        1.09325795696527       -0.04299358079175
C           -2.86605403926800        2.02415549377170       -0.05866846322403
C           -2.10560781759393       -0.22558670441531       -0.07696631527218
O           -3.25807249878651       -0.59155584499269       -0.12402089123838
N           -1.07685371519609       -1.17865340331280       -0.05291036990896
C           -1.39218708979800       -2.58812956157141       -0.09047400588641
H            5.59730630149973        0.49333548847029        0.94134304664803
H            5.82237643720214       -0.23337245632316       -0.67546709836673
H            2.65572792198538        1.39024939149960        0.12383588021048
H            3.48310318313261       -0.71194604702151        0.10536945678152
H           -2.48063049708068        3.04339521030127       -0.03648478059601
H           -3.45924742894726        1.85805288664405       -0.95956821345105
H           -3.51227066923485        1.84606173219088        0.80129014146740
H           -1.02367018478044       -3.08941853943564        0.80757468614145
H           -0.95595464572059       -3.04824109161651       -0.98129596685767
H           -2.47742900592178       -2.67117396029057       -0.12825209156642
H            1.44573835248224       -2.45707906325110        0.02195785521345
