25
 energy: -6.067621797972 xtb: 6.6.1 (8d0f1dd)
C            3.32394356315569        1.14211549870569        0.08756434788240
N            2.31914626806106        0.12648087047406        0.04109111218195
C            2.60378694963805       -1.22552889184704        0.05071278625674
N            1.41563794547136       -1.91801809344176        0.00462524434031
C            0.40077980256287       -1.03331593058965       -0.00737768214267
C            0.92340776471619        0.25602892208936        0.01716842806137
C            0.09566818994409        1.40428750249628       -0.00164924639176
O            0.46013014427727        2.58375080138761       -0.00086941992930
N           -1.28640166546542        1.05027019033174       -0.03112502044660
C           -2.24942932772264        2.13768610829321       -0.05076170205629
C           -1.82784416495408       -0.19680190168466       -0.04845777002992
O           -3.02601998523643       -0.39100357381761       -0.07244575633797
N           -0.93847860781038       -1.28709552552523       -0.03796002646365
C           -1.46248109744992       -2.63252996990400       -0.06143413547640
H            3.81407142667845        1.17487024615606        1.06458272785756
H            4.08614534457085        0.96428135603629       -0.67768285159764
H            2.82914315243633        2.09123942162217       -0.07795497419908
H            3.58411036218142       -1.62786234844525        0.06552706330906
H           -1.69680119437670        3.07211545645631       -0.02621748125954
H           -2.85466375297213        2.08058324254361       -0.95570715931985
H           -2.90819228336174        2.06381425621984        0.81453456776343
H           -1.15886394407719       -3.18483751957177        0.83127611387356
H           -1.13049475904098       -3.16519623870297       -0.95584821971969
H           -2.54781486877246       -2.55031574576323       -0.07958573864781
H            1.34947876534850       -2.92241178078617       -0.01357128421654
