25
 energy: 111.253233297253 xtb: 6.6.1 (8d0f1dd)
C            4.93473355373130        0.31306146765688       -0.00325557738289
N            1.96512613582562        0.65940680359914        0.12956181030264
C            2.38241707977535       -0.62203602807751        0.16737556440391
N            1.33097302634001       -1.47129110077787        0.02896429372236
C            0.21272284818077       -0.70821112421758        0.00850982939651
C            0.57419313344792        0.63535044806341        0.08164715378082
C           -0.41095540466096        1.66652970888409        0.04099463705369
O           -0.25968870917458        2.87600914159796        0.06666846742089
N           -1.71599666737423        1.09844999568294       -0.02333581501478
C           -2.81369310734937        2.03805750671180       -0.04658774955629
C           -2.08675785628990       -0.21365125416108       -0.07513587252692
O           -3.23863718343652       -0.58090994436964       -0.13089641715923
N           -1.06063788021483       -1.16204342731215       -0.05525928316448
C           -1.37009841188964       -2.57472716020050       -0.09896397401146
H            5.43907853909527        0.37375435740118        0.95554387710762
H            5.61047982596018       -0.19005481282147       -0.71196588626818
H            2.85940276317493        1.22167629691991        0.13297562748570
H            3.45714291745515       -0.79917490329227        0.08664997349835
H           -2.40559054579071        3.04879812755178       -0.03338811124363
H           -3.40317186713308        1.87127725381612       -0.94687338205771
H           -3.45461143550989        1.86546155506328        0.81823189370284
H           -1.00199575011272       -3.07698789827297        0.79838538262050
H           -0.92814358107237       -3.03416158172747       -0.98669738601560
H           -2.45529585816984       -2.66319157730900       -0.14126141701061
H            1.41021582608337       -2.47490414930881        0.00988161740842
