25
 energy: -42.093045023587 gnorm: 0.009733704502 xtb: 6.6.1 (8d0f1dd)
C            3.28819201379968        0.86456884280619        0.35868984820578
N            1.98820236028947       -0.85520284854273       -0.94953755179273
C            2.33611842742315       -0.28644746406493        0.35316295677817
N            1.15299590641760       -2.04852333867847       -0.83569133691915
C            0.21779591372433       -1.35933821646316       -0.22446593707329
C            0.95739154203320       -0.07615233665405       -0.20279726488855
C            0.16638542694530        1.17015873496001       -0.41000624212609
O            0.59714592565675        2.21246011215209       -0.82102539449657
N           -1.13244554306461        0.95008438006403        0.00827055288191
C           -2.01397503169593        2.11527303513093        0.06252422968187
C           -1.76445672263661       -0.25339532150801        0.35350880889094
O           -2.89026053361155       -0.27611477006877        0.74896717071220
N           -1.04618809782345       -1.46225142963781        0.14386876291761
C           -1.75590791941695       -2.72850542796320        0.18558529296408
H            3.26469796414266        1.34630561409668        1.33414067007180
H            4.30432535060067        0.51146107937171        0.19018990009621
H            3.02891940254353        1.60522377919679       -0.39524827115253
H            2.46960085826591       -1.03489745411592        1.13157240927479
H           -1.42324928259580        3.00199099296078       -0.15192446659549
H           -2.81211995903409        2.01411030514026       -0.67238908920684
H           -2.46145271422984        2.18611631268845        1.05286717243704
H           -1.37732060802669       -3.33822890411771        1.00505031292865
H           -1.60697711344202       -3.26047109290328       -0.75325588016078
H           -2.81276387737267       -2.52235096024297        0.34386194663215
H            2.48577782521849       -0.65763508202716       -1.82474698215218
