25
 energy: -42.163223482707 gnorm: 0.005144430750 xtb: 6.6.1 (8d0f1dd)
C            3.23175056440711        1.08601770094730       -0.08184918742637
N            2.29701058556237       -0.00340078528864       -0.04193331511803
C            2.56847359593268       -1.30369164110129       -0.02727707571606
N            1.41590285024855       -2.01814151503458        0.02397687578878
C            0.38116954737123       -1.13808926775182        0.04541273848111
C            0.92842065304804        0.14930123189047        0.00208912623952
C            0.12695107625516        1.30202466318435       -0.02640512037720
O           -1.54346070477724        3.26929955673864       -0.58349123968549
N           -1.18156313864834        1.02496696661521        0.03226796149991
C           -2.10315579616060        2.18275489160458        0.03086473399602
C           -1.80322823852845       -0.22487533286198        0.10490252370906
O           -2.99255274726305       -0.35865730738169        0.16655886781987
N           -0.94371803028554       -1.34377182469297        0.09195384857406
C           -1.52303426082215       -2.67282575915623        0.11016742685658
H            3.63071178806588        1.28439813953563        0.91485601103133
H            4.05815205019868        0.85452740894550       -0.75230484992075
H            2.70730809143769        1.97382008705568       -0.43075395700863
H            3.54853980246466       -1.73677558305343       -0.05185372328516
H           -2.36173784295571        2.39364961050491        1.08394768899166
H           -0.57613514733827        3.22298297010506       -0.46997699082167
H           -3.02005938580394        1.89864118781739       -0.49742992208585
H           -1.22424601019268       -3.20713701266250        1.01232352387665
H           -1.21879171760478       -3.23063586341515       -0.77570850548878
H           -2.60644613088740       -2.55890783383784        0.10702502826175
H            1.36417006037526       -3.02723614710726        0.04380914970737
