  25
        -42.18707039
 C          3.6393861204        0.2171838899       -0.1141823550
 N          2.4548656684       -0.5919424577       -0.1052419069
 C          2.3945788363       -1.9272084714       -0.0125880906
 N          1.0930474446       -2.3265929199        0.0363783265
 C          0.3102333074       -1.2130310282       -0.0174016263
 C          1.1659643338       -0.1007693468       -0.1208038850
 C          0.6578454185        1.1817559037       -0.2844859912
 O         -1.6378633861        3.1428084964        0.8049149251
 N         -0.6817601534        1.2631658108       -0.2557581367
 C         -1.3066872866        2.5980225299       -0.4104257217
 C         -1.5769753978        0.2167671784       -0.0242656479
 O         -2.7605565211        0.4068240591        0.1102549923
 N         -1.0317490675       -1.0749744360        0.0265594576
 C         -1.9189586976       -2.2145954861        0.1502955773
 H          4.0415091606        0.3160152265        0.8967297459
 H          4.4008085107       -0.2280793855       -0.7529145787
 H          3.3756281646        1.2065772169       -0.4836974474
 H          3.2356387506       -2.5901020328        0.0187340036
 H         -2.4327387681        2.7360212492        1.1831036296
 H         -0.5494154284        3.2424202748       -0.8613535407
 H         -2.1664496677        2.4733062774       -1.0911539097
 H         -1.6759699866       -2.7919371866        1.0429565601
 H         -1.8471608949       -2.8486982131       -0.7355997234
 H         -2.9364162285       -1.8355673369        0.2355694449
 H          0.7784060860       -3.2843940035        0.0991278525
