25
 energy: 0.000000000000 xtb: 6.6.1 (8d0f1dd)
C            3.23720163006194        1.16630919979326        0.08434469647475
N            2.29877817382611        0.07527477071623        0.03981603040599
C            2.58028210190900       -1.21425402444508        0.03006176031096
N            1.43813958087363       -1.93419271955128        0.00098261760884
C            0.39035688448383       -1.05887472636071       -0.00790371836672
C            0.93510056364412        0.21347819449412        0.01709077491437
C            0.09450143893243        1.40504303904423       -0.00410947031874
O            0.49712751527797        2.54126714362870       -0.00342325688240
N           -1.25076640035757        1.06271879480407       -0.03085478223738
C           -2.21907211982101        2.15522099834493       -0.05001256985998
C           -1.81739487048744       -0.20012725993278       -0.04692818574614
O           -2.99983886758376       -0.37846417018721       -0.07008878229737
N           -0.92618586207120       -1.30210215599479       -0.03682761578324
C           -1.46982264913417       -2.64643102187190       -0.06029820460571
H            3.71247264356769        1.21471455160235        1.06488849150277
H            4.00791497605742        1.03430808813993       -0.67357694370751
H            2.69910007168542        2.09770118228144       -0.09130154882931
H            3.56654120610678       -1.63682992603973        0.04233140067262
H           -1.67107961066214        3.09322851271934       -0.02552706933167
H           -2.82428953597071        2.09428624779827       -0.95318082946668
H           -2.87644029173232        2.07745725625962        0.81450067533302
H           -1.17061996399332       -3.19584890659852        0.83242232437030
H           -1.14560257411436       -3.17511610292205       -0.95688275822323
H           -2.55549792440841       -2.55659984320617       -0.07459039797972
H            1.38130855184625       -2.94313852034425       -0.01389874181052
25
 energy: -2.444369608425 xtb: 6.6.1 (8d0f1dd)
C            3.23755869515380        1.19079390073098        0.08567110066549
N            2.33335983357171        0.07963311308613        0.03643289071926
C            2.63546733604593       -1.26981408322653        0.02920209223398
N            1.43617716198680       -1.93531786809420       -0.00140138413763
C            0.40610240935388       -1.04558166510458       -0.00896111983421
C            0.94566982498602        0.22770730224843        0.01439689575907
C            0.09852741072516        1.40372309474520       -0.00355563271419
O            0.48369133094053        2.57330428828022       -0.00165614551644
N           -1.26683596721821        1.06063469298937       -0.02976404330771
C           -2.23948267639699        2.15137031625267       -0.04845106568312
C           -1.82448004559113       -0.19233179764938       -0.04677872034630
O           -3.02051405519851       -0.37969305224341       -0.07003259037826
N           -0.92821417523085       -1.28805631982798       -0.03690718611520
C           -1.46599164733944       -2.63071252491238       -0.05980334639107
H            3.69487384654598        1.26344075050310        1.07498432774467
H            4.01560280191359        1.06540685983168       -0.66533309259176
H            2.67986729896512        2.11005104399479       -0.10793892367262
H            3.62395255613511       -1.83729593318864        0.04111833356891
H           -1.69356733493806        3.09184342388153       -0.02400711999479
H           -2.84820311339790        2.09445324550706       -0.95114860654159
H           -2.90017901118866        2.07719553877368        0.81545309313083
H           -1.16195148027602       -3.18008777047744        0.83300797115395
H           -1.13510994016035       -3.16061141987054       -0.95494785513089
H           -2.55215082127252       -2.54627216225058       -0.07538579765811
H            1.35804442982123       -2.93475437180718       -0.01716017881496
25
 energy: 11.919192046375 xtb: 6.6.1 (8d0f1dd)
C            3.23351461727875        1.21927110711721        0.08635702815538
N            2.37637932091365        0.07149647538340        0.02956967319209
C            2.69985347315869       -1.33496816778101        0.02688666024542
N            1.43348426585548       -1.92668074730799       -0.00470087582388
C            0.42412155990608       -1.02814355160326       -0.01041962974289
C            0.96376749629971        0.24322832232511        0.01161593737045
C            0.10789363394568        1.39987628541160       -0.00186119583825
O            0.45331275099009        2.59320994675886        0.00111057274969
N           -1.28269667565036        1.06313836595255       -0.02768101145059
C           -2.26295512553433        2.15038167601732       -0.04582604183258
C           -1.82433483762447       -0.18127928437842       -0.04584821513858
O           -3.02501194908522       -0.38111207068880       -0.06957712142638
N           -0.92664598180178       -1.26688315379833       -0.03672066997584
C           -1.45741412521253       -2.60885878562693       -0.05902140802326
H            3.66342156882396        1.34031165550668        1.08713676750051
H            4.03185180649663        1.11615559831829       -0.64660262314934
H            2.64868745977308        2.12101350437801       -0.13612544157476
H            3.67023397192425       -2.11705082034362        0.03755128229946
H           -1.72747513610232        3.09740545866811       -0.02143973308147
H           -2.87749088707175        2.09275096181103       -0.94661515698106
H           -2.92890029533140        2.07478849494241        0.81602294232088
H           -1.15062593973497       -3.15756059671721        0.83453862404823
H           -1.12054532341857       -3.14004290213069       -0.95246261446903
H           -2.54435525095735       -2.53132433323099       -0.07674531276600
H            1.33414427009522       -2.92009483681129       -0.02210854046094
25
 energy: 30.265989859422 xtb: 6.6.1 (8d0f1dd)
C            3.22282561482593        1.23819571100059        0.08562455281738
N            2.40246245790147        0.05614871038732        0.02233231856718
C            2.73854952512426       -1.38518148654592        0.02342284498338
N            1.43700006011955       -1.92619170634447       -0.00783127238940
C            0.43678658113011       -1.02143270525749       -0.01165136613630
C            0.97889392879953        0.24933867250055        0.01016796668966
C            0.11828450521277        1.40385955620318        0.00028718034531
O            0.43514954483565        2.60181302837836        0.00369224441995
N           -1.28749476105076        1.07351645498812       -0.02538254011202
C           -2.27844926638089        2.15375095023353       -0.04283463525173
C           -1.81985537405183       -0.17234596382143       -0.04467814471696
O           -3.01971229806363       -0.38057033115275       -0.06876127848039
N           -0.91941754422442       -1.25162080009907       -0.03633037996900
C           -1.44910182144763       -2.59213229152138       -0.05802738417842
H            3.62032535509797        1.40822421763123        1.09673970584849
H            4.04821542448399        1.16193666637983       -0.62208558652374
H            2.61536906046114        2.12082190547888       -0.16866710431600
H            3.70195325087031       -2.32657884339939        0.03260026603777
H           -1.75917300535310        3.10913193199845       -0.01847491558698
H           -2.89715760389608        2.08966697287244       -0.94157767205819
H           -2.94768862290595        2.07083545049099        0.81711873388113
H           -1.14290815059124       -3.13707162565474        0.83763200198186
H           -1.10910873126289       -3.12174256138555       -0.95075849911576
H           -2.53638397633500       -2.51511042734475       -0.07807231945340
H            1.32285051463693       -2.91823288384448       -0.02745082113652
25
 energy: 42.317758106543 xtb: 6.6.1 (8d0f1dd)
C            3.21327678690586        1.24816937899914        0.08477458939013
N            2.40884795528914        0.05262146495077        0.01760707824256
C            2.75171331852018       -1.40356641986509        0.01999386003709
N            1.44309718673090       -1.92502077948177       -0.00945402162601
C            0.44121632075900       -1.01942607025728       -0.01164333934342
C            0.98360662065614        0.25240264223016        0.01113202576854
C            0.12212552923489        1.41122971714658        0.00187337703335
O            0.42659466170494        2.60558692391622        0.00482358007258
N           -1.28781571633945        1.08143797139401       -0.02396041297253
C           -2.28436985073498        2.15705069845743       -0.04129796277414
C           -1.81784003222796       -0.16850314959956       -0.04366903906156
O           -3.01569220357895       -0.37951902906944       -0.06823970589738
N           -0.91418826440870       -1.24504030106254       -0.03559306488124
C           -1.44541127919554       -2.58565933039062       -0.05723726685198
H            3.58754873185550        1.43573035811450        1.09966491217410
H            4.05312706450539        1.18155770162124       -0.60496372301517
H            2.60148043563496        2.12052311577743       -0.18866578339878
H            3.73201268396735       -2.43637568835692        0.02947096536832
H           -1.77438058047531        3.11666483110875       -0.01700216033390
H           -2.90374561441033        2.08808723124090       -0.93957759584136
H           -2.95379625769617        2.06897295045830        0.81841310493595
H           -1.14102650858916       -3.12835276430032        0.83965939499418
H           -1.10465458495563       -3.11423311384701       -0.94948306750132
H           -2.53288184883188       -2.50829300847242       -0.07884343607865
H            1.32337011361604       -2.91701672854044       -0.03074841229206
25
 energy: 59.299590010671 xtb: 6.6.1 (8d0f1dd)
C            3.20444173580674        1.26067375030408        0.08436096462683
N            2.40806884066525        0.05973476729507        0.01197875410267
C            2.75817732389894       -1.40972259775432        0.01323856612652
N            1.45113566091043       -1.91744609917631       -0.01116501294660
C            0.44177748296125       -1.01538063384754       -0.01082241785597
C            0.98336238559354        0.25876853133338        0.01442718628520
C            0.12135777069439        1.42316330419771        0.00373820640826
O            0.41280126674418        2.61205050607713        0.00585603952617
N           -1.28954408264507        1.08865026154916       -0.02264446312935
C           -2.29021420417208        2.16010598028605       -0.04017138700919
C           -1.81912812473207       -0.16648304579249       -0.04256685857363
O           -3.01408144555238       -0.37888846217598       -0.06778356388729
N           -0.91049482345878       -1.23944973469173       -0.03426999613529
C           -1.44325745673962       -2.58183993046237       -0.05651572058833
H            3.55575521456522        1.45602211732252        1.10031051951912
H            4.05488920222287        1.19571569811772       -0.58775157591413
H            2.59707176780071        2.12520966785263       -0.20750543281557
H            3.79055138095584       -2.57284351770987        0.02951433522627
H           -1.78676070123734        3.12211876019448       -0.01598415708193
H           -2.90919310118926        2.08764657293178       -0.93850371802588
H           -2.95891803096416        2.06851392450869        0.81984263871461
H           -1.14041974215914       -3.12279244221905        0.84104213677677
H           -1.10186833179249       -3.10904004525913       -0.94835647211991
H           -2.53105709522392       -2.50560562290229       -0.07942569904489
H            1.32776177498319       -2.90985310780730       -0.03380897603714
25
 energy: 67.133989832453 xtb: 6.6.1 (8d0f1dd)
C            3.19599376357227        1.27636614098852        0.08520134859319
N            2.40468831513394        0.07324510390889       -0.00210764415806
C            2.76552365070784       -1.40880882998742       -0.03074943441608
N            1.46023408283297       -1.90288445007076       -0.02178777189574
C            0.44157654554986       -1.00743096403976       -0.01063862423916
C            0.98042539915101        0.26942471310566        0.01970851297251
C            0.11712584552897        1.43586895508059        0.01376200238376
O            0.39493766291188        2.62117576008506        0.00923067021381
N           -1.29467148908462        1.09499823985510       -0.02027986398930
C           -2.29793966217637        2.16316797754639       -0.04101019544959
C           -1.82224336174704       -0.16488620441931       -0.04049791321295
O           -3.01477383903491       -0.37935239917132       -0.06756889614066
N           -0.90885645848489       -1.23345969820596       -0.03014129533154
C           -1.44094733453396       -2.57844193932372       -0.05408613390020
H            3.53185902862543        1.47224619417263        1.10109806771626
H            4.05288446250823        1.21054975847860       -0.57529696662526
H            2.59377637140207        2.13648768561940       -0.21785588337827
H            3.86431080432943       -2.74898501074664        0.06343279916517
H           -1.79843487582264        3.12654511867303       -0.01692520080295
H           -2.91568238878291        2.08759946031407       -0.93992322947975
H           -2.96644382325859        2.06957968445368        0.81899527694311
H           -1.13869430810493       -3.11852572604042        0.84354371061113
H           -1.09889964008802       -3.10427238929644       -0.94583843160264
H           -2.52916866936958       -2.50487272011177       -0.07779774498217
H            1.33563458617080       -2.89630585869607       -0.03543326284733
25
 energy: 69.593963065247 xtb: 6.6.1 (8d0f1dd)
C            3.17973595781835        1.30262527349998        0.08496911420771
N            2.38581951057165        0.10350961045019       -0.00666252900919
C            2.77035709934562       -1.38666888878643       -0.07408349829503
N            1.47989009676400       -1.86805481223418       -0.02810596867310
C            0.43774432527214       -0.99021879477809       -0.00614874181728
C            0.97022202381707        0.28918249731497        0.03059164443458
C            0.10514408963125        1.45870035772123        0.02022356998823
O            0.36633052620066        2.62881813661490        0.01069551715487
N           -1.30317723026823        1.10736987691772       -0.02016553292028
C           -2.30982300398238        2.16865826771383       -0.04119020200693
C           -1.82741355409083       -0.16420024394201       -0.03995610436545
O           -3.01511140655588       -0.38082294529624       -0.06796444989508
N           -0.90694461997496       -1.22398163163775       -0.02683845920641
C           -1.43655565099343       -2.57454816765634       -0.05301957548690
H            3.50311665464462        1.49119618606711        1.09622859000403
H            4.04268580336780        1.22384530214336       -0.56085119883424
H            2.59231803251314        2.15855636675731       -0.23161567809486
H            3.98825937117536       -3.05963608717001        0.09397843751478
H           -1.81449362498506        3.13258542073433       -0.01699025696256
H           -2.92562952433035        2.08712954740765       -0.94039504330793
H           -2.97573214769068        2.06901651329502        0.81993742481429
H           -1.13521526508513       -3.11283551402510        0.84470918851228
H           -1.09367548372238       -3.09846200062569       -0.94423338708777
H           -2.52563347011286       -2.50558334880804       -0.07777285437709
H            1.35999615860672       -2.86715231950573       -0.03830611014333
25
 energy: 62.638470161026 xtb: 6.6.1 (8d0f1dd)
C            3.16758259596318        1.32022044640985        0.07951847043029
N            2.31728605693615        0.16371993181033        0.01061687473183
C            2.71848001555047       -1.26619570857350       -0.07625380426701
N            1.50222766568087       -1.81493764514858       -0.02703972928704
C            0.41647376942975       -0.96964855229238       -0.00027618184727
C            0.94178501214279        0.30550924065177        0.03482055284954
C            0.07561302014497        1.47996077374835        0.00938990870230
O            0.35640153924248        2.62559532152078        0.00998427181150
N           -1.30617578091202        1.11248318302592       -0.02310145049992
C           -2.31335549440039        2.16909312698450       -0.03941936591267
C           -1.83522991321436       -0.17262991676962       -0.04155436317877
O           -3.01967196694434       -0.37924864227846       -0.06729126508416
N           -0.91503905381054       -1.22471376429720       -0.02894732606426
C           -1.43856212757460       -2.58097861173824       -0.05538908355982
H            3.50862509317112        1.47868566303581        1.09053835209745
H            4.02901510006714        1.20151244872357       -0.56778282141839
H            2.60278304241907        2.18618743889920       -0.23163116491069
H            4.17162065025388       -3.36845624963985        0.10897488546740
H           -1.81405331818690        3.13101163810084       -0.01544810056535
H           -2.92687359634400        2.08714000351934       -0.93822913520262
H           -2.97585200080596        2.06793984086596        0.82244239791028
H           -1.13349142032018       -3.11728059653052        0.84151132249958
H           -1.09410795108549       -3.10195565613767       -0.94689036748680
H           -2.52732860564509       -2.51330512535549       -0.07862970617466
H            1.40406233617825       -2.83067998636265       -0.04287927489348
25
 energy: 55.221761429054 xtb: 6.6.1 (8d0f1dd)
C            3.16561258554960        1.32200764325301        0.07623043909078
N            2.25898118428156        0.20264356378469        0.01433039632512
C            2.65399545222854       -1.11754698334236       -0.07457586961332
N            1.50209472038360       -1.78770024208789       -0.02406015631241
C            0.39271493522346       -0.96000973820741        0.00222193425291
C            0.91681090540472        0.30824384325487        0.03255641316329
C            0.04334779392318        1.48248500078777        0.01380488320023
O            0.36287606698989        2.63722579386412        0.01077792318969
N           -1.30767687658654        1.10625536212666       -0.02261583673641
C           -2.31403402345963        2.16552545951258       -0.04215394499217
C           -1.84288847613146       -0.18144406994732       -0.04234075258360
O           -3.03167089759663       -0.37334596114876       -0.06931058977652
N           -0.93370066510476       -1.23155088507868       -0.03069879627047
C           -1.44672248108356       -2.58876867612764       -0.05630480114628
H            3.53903690346432        1.45572251108783        1.09422257295476
H            4.01538144756575        1.17209881191324       -0.58799527593803
H            2.61438739904660        2.21030969726748       -0.21324596751334
H            4.37626703865013       -3.55386506271894        0.11286087302809
H           -1.80725838958448        3.12665540367655       -0.01709164919839
H           -2.92575089333487        2.08990904212879       -0.94172091070376
H           -2.97626528959229        2.07045350042930        0.81920255826346
H           -1.13482544472774       -3.12484843672297        0.83949254741779
H           -1.09755265369724       -3.10810075755906       -0.94828906081338
H           -2.53391697992248       -2.52274425284346       -0.07844960881587
H            1.42297130604658       -2.81058196513038       -0.03981342432489
25
 energy: 54.192404779377 xtb: 6.6.1 (8d0f1dd)
C            3.15871174681693        1.33296506757283        0.07533048770689
N            2.24803630745184        0.21711463027902        0.01984315250513
C            2.64952121152420       -1.05025801019299       -0.03928239260252
N            1.49556928718137       -1.77660360039067       -0.01741714600790
C            0.38230054202459       -0.95368897103782        0.00555482147862
C            0.89125794573485        0.32187849501953        0.03738492128922
C            0.01510704426311        1.48449288997132        0.01030716588093
O            0.34999264819305        2.64716173608898        0.00679320690453
N           -1.32679336116923        1.10981266838671       -0.02424992245905
C           -2.32799459476800        2.17239925847226       -0.04388949451382
C           -1.85444906652096       -0.17917611949477       -0.04280909827113
O           -3.04679484416988       -0.36904815829956       -0.07117700890219
N           -0.94908014720391       -1.22940012283739       -0.03206183996637
C           -1.45267424503830       -2.58851620318882       -0.05799709386291
H            3.55176371735593        1.44440246356222        1.08715100431130
H            3.99038924846013        1.16014347341956       -0.60075938131884
H            2.62670521573044        2.24091054023425       -0.19709475977196
H            4.59103366315822       -3.74428259029373        0.09307211738826
H           -1.80999662518907        3.12838714393388       -0.01920856774313
H           -2.93597186732652        2.09791667978734       -0.94574286708586
H           -2.98680628654100        2.07916949706379        0.81987859257916
H           -1.13724977392839       -3.12666977191180        0.83635752875140
H           -1.10022904004295       -3.10895753157329       -0.94926683252225
H           -2.54024860492316       -2.53209166297595       -0.08025751935817
H            1.43011454686293       -2.78903319942289       -0.04342517826204
25
 energy: 53.892777719918 xtb: 6.6.1 (8d0f1dd)
C            3.15449253157301        1.33535462580749        0.08079882911889
N            2.24227929818228        0.22248214442163        0.02519973150138
C            2.64579912474287       -1.03456377097911       -0.01659743768170
N            1.47922610249913       -1.77923066372709       -0.01520952947386
C            0.37911230345159       -0.95271343691392       -0.00230061670622
C            0.87083504806356        0.33255666253759        0.03120735134622
C            0.00388772366240        1.48389804247265        0.00524045164102
O            0.34953244831858        2.64859016081716        0.00481786874551
N           -1.33859506704283        1.11148148065150       -0.02684217109516
C           -2.33372047431949        2.17631423384549       -0.04532636835431
C           -1.85876349064563       -0.17527230090766       -0.04537917363785
O           -3.05246793072612       -0.36892173654463       -0.07010126734646
N           -0.95487445799930       -1.22894266193475       -0.03602207166713
C           -1.45538533788294       -2.58801661106889       -0.05697864722251
H            3.56153577256706        1.43499038140959        1.08903293582820
H            3.97772254887996        1.15613866351357       -0.60679962671711
H            2.62633642983655        2.24962611343188       -0.18097689955838
H            4.71141939718862       -3.79061477394904        0.06563069270386
H           -1.80566529734515        3.12709781776300       -0.02064654781138
H           -2.93936483792774        2.10288877887677       -0.94814913834151
H           -2.99011189229659        2.08398961037164        0.81956077618038
H           -1.13733145396458       -3.12658216778837        0.83717820590100
H           -1.10461060334568       -3.11144587975537       -0.94789054676229
H           -2.54328564902965       -2.53494931340956       -0.07684135561785
H            1.42421243149630       -2.78512679676954       -0.03557154882543
25
 energy: 53.682919869095 xtb: 6.6.1 (8d0f1dd)
C            3.15505587225367        1.33158567447415        0.08164939986339
N            2.24037912783258        0.22144531977645        0.03094254304409
C            2.63760024793666       -1.04233990805397        0.00986446964019
N            1.45736764873080       -1.78523523737355       -0.01150508621268
C            0.37697077410429       -0.95306370107112       -0.00738652759078
C            0.85819617751400        0.33885653295697        0.02403813239402
C            0.00107338672828        1.48310243036413        0.00316089133416
O            0.35036361885498        2.64938052726460        0.00509111374428
N           -1.34604437683775        1.11180656173816       -0.02657068561305
C           -2.33749885300798        2.17763687631070       -0.04507502629664
C           -1.86159089409954       -0.17069772949102       -0.04470648316427
O           -3.05572933301179       -0.36964293181513       -0.06952773108593
N           -0.95776951869992       -1.22845461828270       -0.03695280577791
C           -1.45732862182296       -2.58697264256906       -0.05880984344584
H            3.57035374657629        1.42923796706407        1.08711765485890
H            3.97445693600037        1.15155128548619       -0.61345687133056
H            2.62888344635731        2.24802117543542       -0.17784587326060
H            4.79510129145999       -3.77333373883882        0.04856296792634
H           -1.80549396182303        3.12650342339783       -0.02031779359695
H           -2.94224891688963        2.10496864751358       -0.94815050144337
H           -2.99345563858513        2.08632671237193        0.81968809295937
H           -1.13945755307449       -3.12686984278870        0.83502590150805
H           -1.10520176712335       -3.11037598726331       -0.94981804261458
H           -2.54545472011520       -2.53575665686569       -0.07945708129636
H            1.41368654867771       -2.78865153756910       -0.02852691839597
25
 energy: 53.515766044503 xtb: 6.6.1 (8d0f1dd)
C            3.15579510566452        1.32453408824371        0.08484816185952
N            2.23984307283149        0.21546783352318        0.03287977002777
C            2.62361793315129       -1.05748145771982        0.02289539498736
N            1.43807272377675       -1.79003472783765       -0.00978016638255
C            0.37258458289044       -0.95385458655130       -0.01253852782305
C            0.85485200839429        0.33844983792436        0.01452503847654
C            0.00356566272700        1.48218785460013       -0.00020760378190
O            0.35159239169535        2.64905351433965        0.00444660384889
N           -1.34789125752468        1.11069153518643       -0.02762804576369
C           -2.33644576832697        2.17790689992598       -0.04517299030944
C           -1.86450069119412       -0.16739334888906       -0.04612713779092
O           -3.05856921418188       -0.36950491369861       -0.06963930102339
N           -0.96093128524893       -1.22859968326861       -0.03746372299505
C           -1.45951361719385       -2.58717914326641       -0.05770782098109
H            3.57289046319727        1.42228511715534        1.08968607164673
H            3.97471951294601        1.15148070372819       -0.61348854632695
H            2.62741754298851        2.24063951763301       -0.17140696119994
H            4.84918426975845       -3.72188698830528        0.03144854779726
H           -1.80267546898047        3.12587813068129       -0.02024835989827
H           -2.94137593567177        2.10687221095785       -0.94828428346977
H           -2.99258180266158        2.08778121472752        0.81951955063099
H           -1.14023978413412       -3.12591103894597        0.83658006444407
H           -1.10720072590213       -3.11146304665533       -0.94819842401274
H           -2.54746052841131       -2.53638684361169       -0.07755451598274
H            1.40746547734670       -2.79450407770489       -0.02434889983032
25
 energy: 53.275588853023 xtb: 6.6.1 (8d0f1dd)
C            3.15667104598705        1.32041799569119        0.08238997907455
N            2.24287228731794        0.20894933276760        0.03407431174573
C            2.61523500967076       -1.07646464412346        0.03053174188613
N            1.43028140155113       -1.79082569948126       -0.00590362245338
C            0.36833590618859       -0.95248109100166       -0.01161029381440
C            0.85981180583478        0.33623213902807        0.01386520840222
C            0.00788890950885        1.48356068107591        0.00131810418622
O            0.34841498896733        2.65065087275127        0.00639271465065
N           -1.34681804470038        1.11060450197779       -0.02582332723005
C           -2.33615516401959        2.17762451793640       -0.04422483315449
C           -1.86702446631111       -0.16577121059493       -0.04486239048227
O           -3.06028253746861       -0.36879851590543       -0.06998030022491
N           -0.96316566353156       -1.22716957278302       -0.03669009876361
C           -1.46030511481363       -2.58660016829375       -0.06000059667488
H            3.57044218902596        1.42501566742983        1.08693442338670
H            3.97683374065490        1.14889230885194       -0.61371993919668
H            2.62774019751614        2.23532694627577       -0.17911238286220
H            4.87037007873199       -3.69316300130396        0.03080410483461
H           -1.80529133020366        3.12701996706498       -0.01940144983948
H           -2.94155273950681        2.10608127842422       -0.94737244789733
H           -2.99336139360026        2.08743326922613        0.81996640115799
H           -1.14121231295038       -3.12588109615802        0.83380574993923
H           -1.10633080402094       -3.10878118611410       -0.95088438096375
H           -2.54806383630116       -2.53610265334064       -0.08075967029545
H            1.40688051440888       -2.79674203722886       -0.02270310926383
25
 energy: 53.176505391551 xtb: 6.6.1 (8d0f1dd)
C            3.15671052100760        1.31800930382744        0.08439821486083
N            2.24205914494857        0.20666761203244        0.03285409269634
C            2.60614187116157       -1.07979822019992        0.02323177076988
N            1.42894668827137       -1.78910423479610       -0.00832600444666
C            0.36354659721931       -0.95061448908095       -0.01254096251806
C            0.86356447932412        0.33383769462451        0.01310215544242
C            0.00964686883913        1.48342012200574        0.00005728308609
O            0.34898425243847        2.64963639470514        0.00495868403158
N           -1.34436128359627        1.10976604735101       -0.02697559987800
C           -2.33395246221040        2.17718285629518       -0.04498161944016
C           -1.86866511582654       -0.16649258255362       -0.04578795329040
O           -3.06174967532674       -0.36766415279395       -0.06971665138511
N           -0.96595698743271       -1.22723197857002       -0.03690036195035
C           -1.46089117803078       -2.58760146308011       -0.05786176936913
H            3.57066323146146        1.42086600517808        1.08921514156991
H            3.97696874633877        1.14964400605882       -0.61178283821300
H            2.62665631006199        2.23337812901839       -0.17340863479403
H            4.87558540856258       -3.67490473447618        0.03196521216209
H           -1.80349191255694        3.12670978180872       -0.02034777227785
H           -2.93986268887388        2.10559524265941       -0.94792631451352
H           -2.99104601603453        2.08692341144678        0.81945095662260
H           -1.14033879301186       -3.12510263554452        0.83653079686547
H           -1.10697585408759       -3.11057386785698       -0.94812868701496
H           -2.54846748993789       -2.53725991975657       -0.07776032862429
H            1.40850000522740       -2.79625972613071       -0.02628491424436
25
 energy: 53.167730780642 xtb: 6.6.1 (8d0f1dd)
C            3.15636847357132        1.31925279619024        0.08269831279331
N            2.24326881415720        0.20666565216208        0.03219163734048
C            2.60669595423689       -1.08288254326650        0.02121435315235
N            1.43115938915895       -1.78808355448451       -0.00757096027573
C            0.36282551164610       -0.94931379898015       -0.01100449027314
C            0.86553138527804        0.33397528541920        0.01556262023156
C            0.00973889437449        1.48397862794255        0.00100704362220
O            0.34721320438653        2.65043760759465        0.00547183522129
N           -1.34391466107082        1.10999248580424       -0.02648585387385
C           -2.33426482369124        2.17727266960929       -0.04437244402702
C           -1.86880751723738       -0.16716782145411       -0.04547201526291
O           -3.06181116428802       -0.36750097570998       -0.06994417804379
N           -0.96621368110561       -1.22679138324096       -0.03679422424680
C           -1.46063596305139       -2.58734693985286       -0.05887413875637
H            3.56831504702765        1.42423137690403        1.08804534704792
H            3.97758900981078        1.14959798637321       -0.61170767538466
H            2.62644719977099        2.23404764185039       -0.17799226047771
H            4.87570694373417       -3.68356920607358        0.03725180017520
H           -1.80459176681862        3.12711588071140       -0.01948801904682
H           -2.94019340705842        2.10558628756592       -0.94730539310688
H           -2.99143546180025        2.08653441638437        0.82000829513878
H           -1.14057799591966       -3.12541110898261        0.83522095533842
H           -1.10647908593901       -3.10952391623521       -0.94946053580079
H           -2.54824036077625       -2.53698657935530       -0.07921779487075
H            1.40852072953976       -2.79508228470380       -0.02594832046698
25
 energy: 53.172014599673 xtb: 6.6.1 (8d0f1dd)
C            3.15652678163892        1.31956121687474        0.08254709120948
N            2.24294067529486        0.20761294445639        0.03186989207349
C            2.60644599658953       -1.08127837337618        0.01854083705967
N            1.43191738063582       -1.78780264278843       -0.00832358497259
C            0.36264591136678       -0.94883050162284       -0.01022988341221
C            0.86513224989831        0.33439895995175        0.01697956218740
C            0.00884127379351        1.48386088891975        0.00178199423828
O            0.34758248801817        2.65030712945309        0.00569644931666
N           -1.34402702995484        1.11008804204590       -0.02628400077906
C           -2.33457974914547        2.17726361160302       -0.04472236650427
C           -1.86863892462190       -0.16758267018065       -0.04505661222752
O           -3.06184658008697       -0.36727389717501       -0.06987072064613
N           -0.96634825122664       -1.22692742690143       -0.03645171955619
C           -1.46051817473973       -2.58738962115049       -0.05881734684205
H            3.56935343555242        1.42354967544224        1.08777942347398
H            3.97731970877864        1.14924825908797       -0.61233870703229
H            2.62692194517615        2.23466805653807       -0.17740191118822
H            4.87668511588123       -3.68632182069200        0.03963727885265
H           -1.80477245354172        3.12705683259632       -0.01998146474484
H           -2.94021606928002        2.10516141435735       -0.94775015413440
H           -2.99177124286683        2.08655233333129        0.81957909132952
H           -1.14052015704203       -3.12566766859274        0.83516838565087
H           -1.10633081925520       -3.10946074937874       -0.94951007332878
H           -2.54816867046945       -2.53709904906093       -0.07923569387535
H            1.40763982754268       -2.79466634156644       -0.02657187000077
25
 energy: 53.177511722030 xtb: 6.6.1 (8d0f1dd)
C            3.15621221843180        1.31988148563698        0.08300838329056
N            2.24275027838294        0.20824351784874        0.03125252146505
C            2.60640382507735       -1.08082693079875        0.01545089776078
N            1.43219428206950       -1.78808104777330       -0.00945141814914
C            0.36276803560766       -0.94876130969578       -0.01007261846199
C            0.86442658398149        0.33463871808242        0.01739555709292
C            0.00799545837002        1.48358353847047        0.00104163788044
O            0.34809994449569        2.65007308104832        0.00482379867041
N           -1.34423484461032        1.11016325603171       -0.02700800583467
C           -2.33457160664811        2.17745657423666       -0.04459759770960
C           -1.86838631768036       -0.16792914252095       -0.04577125169360
O           -3.06186572851016       -0.36705333445036       -0.07004033478761
N           -0.96636534751068       -1.22721064276629       -0.03669207117894
C           -1.46058603373385       -2.58747301060491       -0.05832184473694
H            3.56871920064464        1.42344788265476        1.08856844119218
H            3.97735545146967        1.14968880172664       -0.61165161732491
H            2.62657332964491        2.23494625771437       -0.17674241364800
H            4.87963486559326       -3.68746154374294        0.04170756364385
H           -1.80412529427541        3.12690154933697       -0.01971289266428
H           -2.94044452475807        2.10578716271681       -0.94740834418979
H           -2.99123455175943        2.08655047627173        0.82003614507088
H           -1.14052462157008       -3.12543795048197        0.83587335844936
H           -1.10667722312674       -3.11011894508216       -0.94882915148440
H           -2.54828341098781       -2.53721198945078       -0.07861540600333
H            1.40638069933832       -2.79476785223639       -0.02720944050198
