25
 energy: 0.000000000000 xtb: 6.6.1 (8d0f1dd)
C            3.23720163006194        1.16630919979326        0.08434469647475
N            2.29877817382611        0.07527477071623        0.03981603040599
C            2.58028210190900       -1.21425402444508        0.03006176031096
N            1.43813958087363       -1.93419271955128        0.00098261760884
C            0.39035688448383       -1.05887472636071       -0.00790371836672
C            0.93510056364412        0.21347819449412        0.01709077491437
C            0.09450143893243        1.40504303904423       -0.00410947031874
O            0.49712751527797        2.54126714362870       -0.00342325688240
N           -1.25076640035757        1.06271879480407       -0.03085478223738
C           -2.21907211982101        2.15522099834493       -0.05001256985998
C           -1.81739487048744       -0.20012725993278       -0.04692818574614
O           -2.99983886758376       -0.37846417018721       -0.07008878229737
N           -0.92618586207120       -1.30210215599479       -0.03682761578324
C           -1.46982264913417       -2.64643102187190       -0.06029820460571
H            3.71247264356769        1.21471455160235        1.06488849150277
H            4.00791497605742        1.03430808813993       -0.67357694370751
H            2.69910007168542        2.09770118228144       -0.09130154882931
H            3.56654120610678       -1.63682992603973        0.04233140067262
H           -1.67107961066214        3.09322851271934       -0.02552706933167
H           -2.82428953597071        2.09428624779827       -0.95318082946668
H           -2.87644029173232        2.07745725625962        0.81450067533302
H           -1.17061996399332       -3.19584890659852        0.83242232437030
H           -1.14560257411436       -3.17511610292205       -0.95688275822323
H           -2.55549792440841       -2.55659984320617       -0.07459039797972
H            1.38130855184625       -2.94313852034425       -0.01389874181052
25
 energy: -3.231014171489 xtb: 6.6.1 (8d0f1dd)
C            3.23867939409445        1.18910767336864        0.08580290432874
N            2.33135682290091        0.08060857812673        0.03647208083074
C            2.63118459569132       -1.26665553041247        0.02931104140415
N            1.43487574238506       -1.93662047690338       -0.00126697331357
C            0.40541469641410       -1.04682008759142       -0.00899601494627
C            0.94479045266923        0.22688770056121        0.01430651225428
C            0.09951005399020        1.40275262061973       -0.00376717183178
O            0.48587385329188        2.57203837056853       -0.00189117986122
N           -1.26577959568722        1.05958509762938       -0.02986704853301
C           -2.23769010821100        2.15056473421380       -0.04850416233504
C           -1.82415788899661       -0.19307541209629       -0.04683753409708
O           -3.02031680768517       -0.37994408597199       -0.07003120209333
N           -0.92853414031605       -1.28913535684098       -0.03696372987229
C           -1.46632228135317       -2.63157904246075       -0.05983205687498
H            3.69751815255818        1.26045324826782        1.07466622312161
H            4.01618785380216        1.06375901929648       -0.66617382669550
H            2.68106248693741        2.10821492526786       -0.10656310065450
H            3.61682912647138       -1.81693862258668        0.04130279866783
H           -1.69064845404041        3.09032702088251       -0.02405422033088
H           -2.84629399772764        2.09400496915857       -0.95126845972678
H           -2.89825953299313        2.07677031055627        0.81549730260328
H           -1.16224559207766       -3.18100005456616        0.83295572489243
H           -1.13554546433670       -3.16147899139229       -0.95503089731406
H           -2.55236892080171       -2.54627119600381       -0.07531629636551
H            1.35709422095643       -2.93652680951931       -0.01691681710999
25
 energy: 7.309338893476 xtb: 6.6.1 (8d0f1dd)
C            3.23654818732565        1.21467622150627        0.08661611702831
N            2.37230089906042        0.07277943533944        0.02954317499163
C            2.68816844851443       -1.32825877871261        0.02727939137576
N            1.42990218930913       -1.93053891067754       -0.00447332621816
C            0.42268696466022       -1.03094032461693       -0.01066776355179
C            0.96252151041920        0.24088897909368        0.01101894370099
C            0.11042635020139        1.39736230104664       -0.00244787426692
O            0.45931634123328        2.58972529064406        0.00058819930219
N           -1.27978852913305        1.06071139796114       -0.02787084432666
C           -2.25873933805980        2.14824263116724       -0.04581172691861
C           -1.82319149862895       -0.18286900507501       -0.04598217886336
O           -3.02398324181886       -0.38167702412151       -0.06950688352122
N           -0.92685969806441       -1.26912712608472       -0.03691239562908
C           -1.45768210745945       -2.61056275400772       -0.05907445239817
H            3.66914242696803        1.33412343609680        1.08662393331223
H            4.03417229765179        1.11271506175150       -0.64805749863651
H            2.65101576740815        2.11568255731068       -0.13361147209933
H            3.65096972955389       -2.06572060977855        0.03800612277916
H           -1.72113179675647        3.09391757696376       -0.02140243199895
H           -2.87315039813071        2.09126367931868       -0.94661012969324
H           -2.92445855623955        2.07327601272576        0.81614892297198
H           -1.15086263706608       -3.15924808661333        0.83449476935563
H           -1.12104473124433       -3.14172566372359       -0.95262367878709
H           -2.54434313222961       -2.53093866540054       -0.07661304840036
H            1.33027922046188       -2.92472902994155       -0.02161997336114
25
 energy: 19.276614246322 xtb: 6.6.1 (8d0f1dd)
C            3.22769372890019        1.22962034273000        0.08595897556097
N            2.39578759613800        0.05726947274950        0.02251048078607
C            2.71801670624440       -1.37191339236326        0.02432836368929
N            1.43118135978195       -1.93203492324278       -0.00736599951008
C            0.43381608761201       -1.02602340732874       -0.01214932434913
C            0.97729904392913        0.24464062738812        0.00894910764075
C            0.12208492047338        1.39958367369422       -0.00081569481299
O            0.44638772332431        2.59558064491004        0.00270076730415
N           -1.28187326121225        1.06932916906087       -0.02573659204849
C           -2.27035755950638        2.15031143612662       -0.04276231550270
C           -1.81783499786250       -0.17515766122169       -0.04491518890080
O           -3.01775041790348       -0.38118447408046       -0.06861996623234
N           -0.91984204156135       -1.25593958571554       -0.03672077132393
C           -1.44957839997323       -2.59588298318064       -0.05814980802244
H            3.62964557790453        1.39540747791761        1.09590142804669
H            4.05134335182923        1.15334209646285       -0.62453242086375
H            2.61995325356678        2.11190471764776       -0.16444868762523
H            3.66415926557248       -2.23102037690356        0.03314808622790
H           -1.74772799273097        3.10370152489744       -0.01833236226903
H           -2.88862092381879        2.08696162626738       -0.94157895932459
H           -2.93888989394435        2.06798036546569        0.81750370785926
H           -1.14343944668574       -3.14087423126810        0.83753345152234
H           -1.11010129044022       -3.12559443967718       -0.95105461845401
H           -2.53642155120843       -2.51582493004691       -0.07787590964523
H            1.31728382950752       -2.92515416811722       -0.02644185360535
25
 energy: 23.656048821236 xtb: 6.6.1 (8d0f1dd)
C            3.22038271415422        1.23419697874164        0.08521546235591
N            2.40004583634205        0.05158358642936        0.01863670624747
C            2.72364767808660       -1.38360359574208        0.02205300462468
N            1.43522387949297       -1.93356097630761       -0.00856876567425
C            0.43664825005160       -1.02655716119397       -0.01239871376043
C            0.98194088260390        0.24407357834235        0.00912896792824
C            0.12695731445849        1.40390999249886        0.00009340189145
O            0.44420510179508        2.59614884022941        0.00332914021269
N           -1.27923233988523        1.07475033809717       -0.02458488665946
C           -2.27192307360495        2.15225709723020       -0.04125344136250
C           -1.81510174710663       -0.17269115263403       -0.04409578366604
O           -3.01336169860091       -0.37968870289081       -0.06804495813222
N           -0.91543486867792       -1.25220104483200       -0.03627680022459
C           -1.44700692232715       -2.59195831273567       -0.05752693708601
H            3.60263808478631        1.41453173871792        1.09872428471465
H            4.05655036558675        1.16533150408602       -0.60980471789059
H            2.60884574037862        2.10768732466327       -0.18153505286339
H            3.67155229594236       -2.28141520046211        0.02980263133370
H           -1.75688450652014        3.10914881135670       -0.01682973757585
H           -2.89070792285115        2.08490396280958       -0.93962912966688
H           -2.94037680097582        2.06550063924316        0.81889483811289
H           -1.14257130980178       -3.13498050093464        0.83930170040529
H           -1.10704905549544       -3.12086498354999       -0.95004039314066
H           -2.53387229029460       -2.51067537634357       -0.07857224975317
H            1.31709906039900       -2.92679878264713       -0.02898467422368
25
 energy: 25.490431465024 xtb: 6.6.1 (8d0f1dd)
C            3.21716506559975        1.23572058284183        0.08494337749224
N            2.39959584309248        0.05093035784763        0.01596880122755
C            2.72272694469065       -1.38403041733996        0.02020163171715
N            1.43814716315912       -1.93303026691603       -0.00909527331971
C            0.43637950381232       -1.02713353225460       -0.01219819233068
C            0.98311593092536        0.24341148904531        0.01002618948719
C            0.12839052230239        1.40708157758887        0.00039689850373
O            0.44266281006333        2.59675914847590        0.00346043569364
N           -1.27700914317912        1.07647212627613       -0.02390784350731
C           -2.27119497146601        2.15268813415797       -0.04039205442362
C           -1.81470362409370       -0.17251096749998       -0.04350011657672
O           -3.01183857524714       -0.37858439235232       -0.06758231404583
N           -0.91375496772463       -1.25138273849356       -0.03576448073199
C           -1.44694809292992       -2.59156814322894       -0.05722761566939
H            3.58673071961144        1.42030632076606        1.09990894745257
H            4.05939684849840        1.16662434422899       -0.60040237961453
H            2.60784572617755        2.10529297686663       -0.19203620551621
H            3.67943618917937       -2.29734523188369        0.02796218337667
H           -1.75897052502806        3.11066418885638       -0.01599795856254
H           -2.88987637499828        2.08420325050164       -0.93872938479058
H           -2.93920125081521        2.06463808706785        0.81996413224843
H           -1.14353212845296       -3.13388855249166        0.83997154326176
H           -1.10680639002142       -3.12003668731650       -0.94950893411918
H           -2.53381169524898       -2.50986051340659       -0.07898745625899
H            1.31826914002948       -2.92639253916532       -0.03044003484634
25
 energy: 26.931091228941 xtb: 6.6.1 (8d0f1dd)
C            3.21631860391583        1.23645348520705        0.08498249921538
N            2.39827867173348        0.05208142907612        0.01337935460354
C            2.72012107001229       -1.38071428042726        0.01822480894345
N            1.43975837741519       -1.93162411361698       -0.00940033150571
C            0.43499355043173       -1.02718809474804       -0.01178928192810
C            0.98311156493134        0.24305505530294        0.01118401055091
C            0.12840776750332        1.40896674133720        0.00047359469532
O            0.44112390455658        2.59776260403779        0.00339961053632
N           -1.27573715891656        1.07625411453853       -0.02336633886313
C           -2.27028435309983        2.15239219931533       -0.03977308501967
C           -1.81559308046904       -0.17305616754131       -0.04300567841355
O           -3.01217727310540       -0.37772783069297       -0.06717793317141
N           -0.91379438808577       -1.25146075364628       -0.03513775595773
C           -1.44785015606613       -2.59221527393954       -0.05710419532731
H            3.57654478038865        1.42324963119752        1.10121011549169
H            4.06263446751684        1.16433080672143       -0.59343061459889
H            2.61000760593190        2.10418163551463       -0.19996362379610
H            3.69055194015769       -2.30484983304734        0.02703587819281
H           -1.75870636162438        3.11057526613852       -0.01538544584734
H           -2.88890848489597        2.08416012192237       -0.93811898333210
H           -2.93803267025957        2.06449535715036        0.82074805558124
H           -1.14478243481059       -3.13446894607337        0.84007161094867
H           -1.10749867748546       -3.12027350257033       -0.94937457747608
H           -2.53465049510192       -2.51038521959074       -0.07918052346025
H            1.31837789736201       -2.92496582939365       -0.03146727391464
25
 energy: 28.604397636783 xtb: 6.6.1 (8d0f1dd)
C            3.21665870250713        1.23704168568607        0.08517783029956
N            2.39708280438407        0.05389623613926        0.01109476729844
C            2.71750972755732       -1.37644512549084        0.01610143452890
N            1.44001699199269       -1.93018759488357       -0.00947937294699
C            0.43351025804440       -1.02659765939528       -0.01112881035202
C            0.98231987353888        0.24339955933361        0.01250874682779
C            0.12746768025901        1.40962332018772        0.00058378985724
O            0.43991078168724        2.59882340289983        0.00321837420035
N           -1.27591817665561        1.07535315204680       -0.02298135486586
C           -2.27021154228257        2.15209277102265       -0.03957636688888
C           -1.81702283807000       -0.17351230069521       -0.04268445668376
O           -3.01358159580604       -0.37728872495071       -0.06706755603440
N           -0.91488236627538       -1.25173776811420       -0.03437893679981
C           -1.44879836518385       -2.59293040385198       -0.05703529262632
H            3.57220869056793        1.42435488443511        1.10207241326891
H            4.06487706405282        1.16152304948696       -0.58979066780793
H            2.61289200150693        2.10482543459852       -0.20369516363301
H            3.70482664384282       -2.31194467553050        0.02706508051846
H           -1.75798793152987        3.11003441589003       -0.01517030914666
H           -2.88877338542321        2.08452972131570       -0.93799146678408
H           -2.93797506888980        2.06488305202235        0.82097349231629
H           -1.14556337194010       -3.13553774852100        0.83988179966874
H           -1.10823858653057       -3.12062049372462       -0.94948591137406
H           -2.53552510215852       -2.51121738679133       -0.07912564924310
H            1.31741177874051       -2.92333220094333       -0.03205251745046
25
 energy: 31.402735590936 xtb: 6.6.1 (8d0f1dd)
C            3.21719651297262        1.23801697407887        0.08546148114392
N            2.39598352860290        0.05625412672664        0.00901156827645
C            2.71507512512989       -1.37183550360008        0.01323840155263
N            1.43940122196091       -1.92878678231277       -0.00943071773069
C            0.43224312015595       -1.02530937895823       -0.01012998772947
C            0.98065766788324        0.24478434844454        0.01407631031814
C            0.12558752355355        1.40978773911941        0.00080492762057
O            0.43870954148783        2.60002139346972        0.00300393506212
N           -1.27768747684548        1.07470130067766       -0.02275200562187
C           -2.27143487825789        2.15227722964181       -0.03981636594648
C           -1.81867349664208       -0.17347344803827       -0.04256874440792
O           -3.01549862892595       -0.37728815887977       -0.06737285488954
N           -0.91651386146028       -1.25183955484278       -0.03338937083308
C           -1.44947046120753       -2.59327697072794       -0.05690246849359
H            3.57239443970626        1.42409280226835        1.10244086057111
H            4.06522203971995        1.15979343703916       -0.58937233695480
H            2.61508886182774        2.10728463460328       -0.20332355865158
H            3.72549780688519       -2.32626919669492        0.02846612928558
H           -1.75785640541700        3.10970343047087       -0.01539145513733
H           -2.88980884572665        2.08530791903183       -0.93838891552009
H           -2.93937390924350        2.06582203967610        0.82065449113373
H           -1.14577062153567       -3.13650620469911        0.83960744075282
H           -1.10873013059818       -3.12061443938664       -0.94966581545126
H           -2.53617620770820       -2.51202178731326       -0.07883664495548
H            1.31615220161863       -2.92159734762248       -0.03239040724660
25
 energy: 39.297708957252 xtb: 6.6.1 (8d0f1dd)
C            3.21694360919455        1.24129301356099        0.08596291692956
N            2.39397619960974        0.06135570478971        0.00561379540809
C            2.71120884106695       -1.36385233184392        0.00542578296985
N            1.43820784369076       -1.92575516475076       -0.00962984121719
C            0.43042984137245       -1.02212055262730       -0.00797114279920
C            0.97658906961930        0.24892853349346        0.01714975136104
C            0.12119509735072        1.41100241715923        0.00166842561209
O            0.43537095408951        2.60288739250568        0.00291080157979
N           -1.28258661195102        1.07506490991672       -0.02250174309699
C           -2.27550237104128        2.15363854722820       -0.04074425688598
C           -1.82157342292195       -0.17244752985652       -0.04255882740897
O           -3.01876049933591       -0.37773175347113       -0.06847710422116
N           -0.91931913269365       -1.25123726284434       -0.03128555444794
C           -1.45008666438016       -2.59294669282784       -0.05640637180363
H            3.57547809103588        1.42328921918516        1.10259031427556
H            4.06268546054939        1.16051482476587       -0.59177080382359
H            2.61628088760237        2.11380948897376       -0.19884231149027
H            3.77455886542607       -2.37394397270605        0.03387376507041
H           -1.75973399716091        3.11016765911766       -0.01633462432462
H           -2.89329089585823        2.08707028513467       -0.93969560951699
H           -2.94374083560468        2.06808607677609        0.81953153991557
H           -1.14556312299993       -3.13723121490472        0.83940450871830
H           -1.10899133940454       -3.11966785825222       -0.94971129216183
H           -2.53689774538967       -2.51312316129646       -0.07812536910389
H            1.31533654607045       -2.91802197505388       -0.03304285339072
25
 energy: 55.962252697950 xtb: 6.6.1 (8d0f1dd)
C            3.21336090334148        1.25585163815757        0.08789408702616
N            2.38482140121326        0.08267547849241       -0.00877506538814
C            2.69640694341844       -1.33260615143567       -0.04293818428194
N            1.43484172860519       -1.91262756430570       -0.01457493732061
C            0.42356466828302       -1.00965553672151        0.00010572730317
C            0.95975280475825        0.26597267262438        0.02931183775492
C            0.10362957432349        1.41818915933583        0.00879407632377
O            0.42078891878090        2.61471401511235        0.00463108956496
N           -1.30158019294554        1.07861068386872       -0.02130875559744
C           -2.29180637115951        2.15969066354013       -0.04517973417683
C           -1.83227996602835       -0.16789432911436       -0.04223861172447
O           -3.03017584820258       -0.37935273590918       -0.07303278235260
N           -0.92918642239912       -1.24810636085540       -0.02227515203242
C           -1.45207145636088       -2.59092010588195       -0.05351708053101
H            3.58764388895246        1.41925296492344        1.10259423984985
H            4.04881057336970        1.16861311994897       -0.60327606945733
H            2.61708127765802        2.14022616861907       -0.17868043406152
H            3.97221799353637       -2.58292896500501        0.07089571264466
H           -1.76907918869027        3.11328008271076       -0.02095398505833
H           -2.90684001466014        2.09351591710375       -0.94577299205696
H           -2.96108907049248        2.07706349727915        0.81431584486985
H           -1.14486855667971       -3.13855636735673        0.83999275214410
H           -1.10940032838227       -3.11535133924534       -0.94856766082342
H           -2.53939893742997       -2.51699432778694       -0.07488597874038
H            1.31707034512646       -2.90363367592674       -0.03552404773079
25
 energy: 52.990286417559 xtb: 6.6.1 (8d0f1dd)
C            3.20080442500160        1.27215480813108        0.08890338641222
N            2.34142732503746        0.12424747156433       -0.01773160421949
C            2.62755459509638       -1.23576284380210       -0.11583216422478
N            1.42926044542722       -1.87952388852440       -0.01691820872138
C            0.40264170297574       -0.98714142611571        0.01161472163684
C            0.92455754506270        0.29095349971152        0.04894850001325
C            0.07394330189352        1.43446863893590        0.01496389371447
O            0.40961633502711        2.62363080685704        0.00501355550211
N           -1.31863077116361        1.08473937984361       -0.02262643571943
C           -2.30541430746552        2.16567606892732       -0.04767773175223
C           -1.84397218350545       -0.16466458722051       -0.04456121671677
O           -3.04100101901039       -0.37884875376173       -0.07612203286286
N           -0.94390987563138       -1.24601102450146       -0.01555519787242
C           -1.45379853259280       -2.59165474484521       -0.05242729171920
H            3.58656998352662        1.41561454464522        1.10261906255266
H            4.03318549801954        1.16090079474240       -0.60674828641637
H            2.61891697364188        2.16903707088647       -0.17330451923621
H            4.29124128594104       -2.90936630828262        0.12265516305735
H           -1.77511555483471        3.11588897814875       -0.02288614002887
H           -2.91616640877627        2.09657041721765       -0.94917803456430
H           -2.97042958665452        2.07992439354933        0.81331031415555
H           -1.14302103028979       -3.13960866067551        0.84006271758472
H           -1.10812889594068       -3.11433076596538       -0.94814809788578
H           -2.54106766904475       -2.52288744385724       -0.07374730029051
H            1.33315108619531       -2.87497782343674       -0.03759315625129
25
 energy: 53.955478058916 xtb: 6.6.1 (8d0f1dd)
C            3.17709977516272        1.27843397473745        0.07698430048930
N            2.28002585384206        0.15021839095022        0.00787187779964
C            2.55970918707091       -1.12505361972618       -0.08262011076860
N            1.43349471758923       -1.82800829070324       -0.01921302725094
C            0.37526330917095       -0.96561597310997        0.01420752491113
C            0.89705963446026        0.30242540411493        0.04973922538352
C            0.04575931728300        1.45943058206412        0.00434426906035
O            0.39048230207439        2.61637861976343        0.00522710817415
N           -1.31557115594734        1.09856619406210       -0.02468245244638
C           -2.30800492173162        2.16852403031739       -0.04398173231072
C           -1.84902510269883       -0.16846670219382       -0.04321832603959
O           -3.04019432460458       -0.37366698312591       -0.07305070714027
N           -0.94968539916826       -1.23863581102217       -0.02202797919035
C           -1.45397713104334       -2.59152616925718       -0.05581574751223
H            3.55958964699078        1.41172522930135        1.08851138793056
H            4.02042823255344        1.14780140902667       -0.59939196762012
H            2.62368767727516        2.17812827296514       -0.19369942815926
H            4.55109992214962       -3.20938143921029        0.12409793681413
H           -1.78354072870412        3.12000427830752       -0.01939019378126
H           -2.91667745772306        2.09400995621637       -0.94467340436003
H           -2.96795269133216        2.07576234951324        0.81862587407732
H           -1.14128439379377       -3.13482519019948        0.83714008156915
H           -1.10549989935010       -3.11262480258469       -0.94931343269369
H           -2.54117278994803       -2.52742020553409       -0.07730685160167
H            1.37110108835890       -2.83715490250087       -0.05133032918686
25
 energy: 54.866490860848 xtb: 6.6.1 (8d0f1dd)
C            3.16859405853806        1.31287836234541        0.07883113648845
N            2.29487432970057        0.17464178684757       -0.00857576860480
C            2.62781816229405       -1.14608018070582       -0.08494101709375
N            1.43297756965265       -1.81211893660387       -0.02471317124291
C            0.37126817972927       -0.95077460546563        0.01924168351056
C            0.88135719117236        0.32939565144731        0.05793496731847
C            0.02401888436186        1.47047697527000        0.01474664266459
O            0.34286772941989        2.65313709623778        0.00523498389904
N           -1.35141874788102        1.10327930543262       -0.02067633646689
C           -2.33719744323222        2.17923586249521       -0.04905724507653
C           -1.87167360693985       -0.16095047555966       -0.04067967797312
O           -3.06598628801887       -0.37217870684958       -0.07992477229135
N           -0.96802188596852       -1.22732465217217       -0.01338918232113
C           -1.46076677819373       -2.58533691985825       -0.05332041271243
H            3.56227197208297        1.42301379862760        1.08979893735644
H            3.99450713275443        1.15882483470431       -0.60904054542330
H            2.62701287196311        2.22809908570977       -0.17728359547248
H            4.81460063404129       -3.53467042530384        0.12828662315693
H           -1.80208965278820        3.12655007566459       -0.02427661526649
H           -2.94304107243308        2.10908286920441       -0.95331569247799
H           -2.99895369192094        2.09303416439783        0.81351457613708
H           -1.14269056024164       -3.13329503848548        0.83623162157531
H           -1.10660871605838       -3.10378559555957       -0.94799547942493
H           -2.54935821540641       -2.53685797056071       -0.07583019098904
H            1.36785261130860       -2.80924775908780       -0.05376757312246
25
 energy: 53.423534461071 xtb: 6.6.1 (8d0f1dd)
C            3.15431738743015        1.31569676750987        0.07801638023949
N            2.25019584955982        0.19758531588241        0.02137519768176
C            2.59750168119620       -1.08928900109857       -0.04499378808374
N            1.42842695885674       -1.78719766684620       -0.01767549957670
C            0.35634760991089       -0.94437581970539        0.00601054344609
C            0.86339599379968        0.33497909052450        0.04279326001815
C            0.01289493184536        1.48461483810620        0.00758465683885
O            0.34441053348535        2.65005822544661        0.00313027875424
N           -1.34301139343371        1.10947069992935       -0.02567442672412
C           -2.33127121440181        2.17704384097139       -0.04478138203560
C           -1.86955097601574       -0.16559824846518       -0.04653522673486
O           -3.06177628076457       -0.36746802435767       -0.07387150708184
N           -0.96928816901190       -1.22639751195819       -0.03013668173034
C           -1.46032765077604       -2.58746677365720       -0.05746327769566
H            3.55721786621563        1.42415050887395        1.08699290017667
H            3.98226177625357        1.14752077768653       -0.60758856581814
H            2.62225010149543        2.22718277962630       -0.18760307911419
H            4.90380829798104       -3.65792130720632        0.09635976699205
H           -1.80107601658485        3.12606919802174       -0.01916037815619
H           -2.93636044541976        2.10365642979491       -0.94781264292727
H           -2.98677789661958        2.08336074679310        0.82056198172125
H           -1.14013261343118       -3.12658133998816        0.83592128826576
H           -1.10565548688527       -3.10856518612435       -0.94892750802437
H           -2.54794083196099       -2.53752282473109       -0.07899839998005
H            1.39235465521178       -2.79397691285654       -0.04048999430398
25
 energy: 53.282717811728 xtb: 6.6.1 (8d0f1dd)
C            3.15448069103263        1.31737249659664        0.07953414542697
N            2.24290062579030        0.20442304146507        0.02885245728536
C            2.59967979546812       -1.08450395845458       -0.02240949114452
N            1.42837077975277       -1.78558907969185       -0.01766032153306
C            0.35770797853527       -0.94621430809900       -0.00093858656381
C            0.86251230329374        0.33533179460252        0.03342151105797
C            0.01075752950892        1.48625091953708        0.00725330111651
O            0.34502929421315        2.65154201634697        0.00393633415011
N           -1.34283709439319        1.11015806436939       -0.02580418205486
C           -2.33324649850315        2.17633426295801       -0.04534242270708
C           -1.86917799557811       -0.16737482038351       -0.04444930626734
O           -3.06190843702853       -0.36691727999468       -0.07064485124738
N           -0.96777095716117       -1.22681030326492       -0.03435380375771
C           -1.46068753069402       -2.58753322328992       -0.05809949724135
H            3.56425142784437        1.42313644781355        1.08615613443026
H            3.97863157216237        1.14653807692285       -0.61034931623876
H            2.62625443215129        2.23068974406621       -0.18313480820646
H            4.90376863776357       -3.67884271030192        0.07941371786861
H           -1.80426092483610        3.12615279957293       -0.02075062613169
H           -2.93890824935283        2.10377138306872       -0.94803939141459
H           -2.98970204186470        2.08536651503365        0.81947419443761
H           -1.14015469193235       -3.12538842310741        0.83571249434708
H           -1.10645340566970       -3.10879267834673       -0.94920096575231
H           -2.54823671583158       -2.53685638666961       -0.07854301005504
H            1.40121414326520       -2.79321578857747       -0.03699981365721
25
 energy: 53.210725238258 xtb: 6.6.1 (8d0f1dd)
C            3.15526010423156        1.31919881753320        0.08148447916794
N            2.23941535706739        0.20939220891304        0.03299365378308
C            2.60513683485193       -1.08317111756179        0.00534368603622
N            1.42970280756172       -1.78638328021023       -0.01372242079007
C            0.36128348511717       -0.94909943783125       -0.00878968255685
C            0.86423151723941        0.33425398724908        0.01969890392662
C            0.00914344605252        1.48539096702290        0.00354467648782
O            0.34718480818656        2.65109545447974        0.00537076447493
N           -1.34305048989752        1.11033008383789       -0.02738415267254
C           -2.33390350209526        2.17650367756499       -0.04428472199522
C           -1.86908627947168       -0.16869124798399       -0.04560125771528
O           -3.06247770700135       -0.36611094474522       -0.06914108593139
N           -0.96628513230025       -1.22695697572268       -0.03858981800101
C           -1.46090950366970       -2.58752822214478       -0.05858209013303
H            3.56764977339175        1.42385468019009        1.08749063488369
H            3.97695888251630        1.14752944400040       -0.61190104710031
H            2.62673137940038        2.23335852906706       -0.17997898457254
H            4.88548237731285       -3.68651209589941        0.05461839605747
H           -1.80402974663250        3.12617355790021       -0.01933474177703
H           -2.93991237071544        2.10548759112917       -0.94704303651830
H           -2.99045822750703        2.08602159996096        0.82062133391297
H           -1.14070529037120       -3.12442950717189        0.83591187335895
H           -1.10619442768684       -3.10974634071506       -0.94873087155350
H           -2.54852732392049       -2.53702882171065       -0.07924123933496
H            1.40957389627590       -2.79390400497976       -0.02771935529034
25
 energy: 53.183236393620 xtb: 6.6.1 (8d0f1dd)
C            3.15656978278586        1.31902624379374        0.08229201357446
N            2.24113986283453        0.20892747331531        0.03263038689317
C            2.60630400528260       -1.08277477402712        0.01098953722713
N            1.43073257921631       -1.78710682370893       -0.01181116947705
C            0.36249934738308       -0.94909977205125       -0.00881203708850
C            0.86524370970635        0.33417612487759        0.01836733647413
C            0.00838237840342        1.48443407312438        0.00331243569177
O            0.34747681591718        2.65043628040554        0.00602041978835
N           -1.34375004994144        1.11026538207824       -0.02669881164515
C           -2.33468081214457        2.17671046635244       -0.04517488876480
C           -1.86913292884649       -0.16852703406116       -0.04445099704246
O           -3.06249980396198       -0.36651530999061       -0.06914381309524
N           -0.96625622996917       -1.22659488152984       -0.03725950607215
C           -1.46066212561386       -2.58717929890221       -0.05851595225847
H            3.57016373665348        1.42232903491274        1.08747233742059
H            3.97677721431976        1.14868373171374       -0.61291031055858
H            2.62745439657392        2.23407458368587       -0.17667574277654
H            4.87851991071231       -3.68500663395478        0.04670322586260
H           -1.80467495320416        3.12637155207590       -0.02064641767329
H           -2.94026089872531        2.10483462408504       -0.94823066626888
H           -2.99182433304214        2.08667161707957        0.81925379984837
H           -1.14033680714611       -3.12496977313341        0.83551798270096
H           -1.10626393828897       -3.10906289457222       -0.94911869340434
H           -2.54829470785746       -2.53684183688091       -0.07880309350178
H            1.40958851688909       -2.79423355251563       -0.02727347970701
25
 energy: 53.159770297789 xtb: 6.6.1 (8d0f1dd)
C            3.15668972623810        1.31923898555284        0.08266237124924
N            2.24324820067534        0.20773394697968        0.03128386382944
C            2.60728108764556       -1.08235105323810        0.01535497828529
N            1.43184520436532       -1.78787481164110       -0.00939301636624
C            0.36325553561921       -0.94877682588065       -0.00935957177124
C            0.86558972529014        0.33432873958862        0.01731236552333
C            0.00802898688153        1.48351396807412        0.00155361598252
O            0.34763566329916        2.65000588011586        0.00547754725711
N           -1.34411789827241        1.10999759480427       -0.02687039755957
C           -2.33452015477915        2.17705280114805       -0.04456802997070
C           -1.86888085009899       -0.16816081306539       -0.04555948395627
O           -3.06227896771314       -0.36695901546806       -0.06999385231014
N           -0.96644495984946       -1.22643122005939       -0.03682206265522
C           -1.46037801687926       -2.58701675186920       -0.05860841145307
H            3.56867107309158        1.42349145934634        1.08829761108351
H            3.97760654237421        1.14912805989216       -0.61208265942983
H            2.62637938125553        2.23412461143438       -0.17750879661718
H            4.87433109876268       -3.68435604491036        0.04223238274500
H           -1.80388984419433        3.12633838846535       -0.01966799283992
H           -2.94020594998038        2.10535716394763       -0.94755408117731
H           -2.99124591972758        2.08624402548556        0.82005140853854
H           -1.14011594173650       -3.12497817349893        0.83549883885574
H           -1.10609912587657       -3.10927337170125       -0.94919301847285
H           -2.54803015372237       -2.53685238877294       -0.07897669436947
H            1.40786022526800       -2.79449655255750       -0.02653301825341
25
 energy: 53.160157727857 xtb: 6.6.1 (8d0f1dd)
C            3.15665071379774        1.31912778447869        0.08277696791215
N            2.24358923225049        0.20731682518898        0.03106236256520
C            2.60704150461648       -1.08140779633810        0.01517943794102
N            1.43203125663514       -1.78778416011969       -0.00909982662341
C            0.36307177582588       -0.94835495160072       -0.00924392951361
C            0.86494418671558        0.33474488615332        0.01835198538852
C            0.00797194470485        1.48355071590719        0.00209048815919
O            0.34747528021831        2.65015972747386        0.00533738179217
N           -1.34419562917718        1.10990180174291       -0.02624122277892
C           -2.33460897728422        2.17698327104793       -0.04501551017947
C           -1.86865705828666       -0.16795261256022       -0.04493860584319
O           -3.06211629563689       -0.36716898572527       -0.06993441674479
N           -0.96647779955938       -1.22660213715911       -0.03613899401519
C           -1.46029013303772       -2.58704085494450       -0.05853493524104
H            3.56928066600596        1.42291784650967        1.08801188643078
H            3.97737306895406        1.14944881111708       -0.61222456237137
H            2.62653825318584        2.23397115106074       -0.17663637426049
H            4.87609013220011       -3.68477648986165        0.04146463763022
H           -1.80396219130585        3.12623814115541       -0.02032117873808
H           -2.93993855555578        2.10485650321091       -0.94818922879417
H           -2.99162480128263        2.08646016121399        0.81938103012887
H           -1.14000837412212       -3.12530643088834        0.83538867781149
H           -1.10613943879981       -3.10905190181635       -0.94932506136931
H           -2.54797752697996       -2.53684020755875       -0.07879063287404
H            1.40615343385398       -2.79436249551599       -0.02737648026524
