25
 energy: -42.495805261573 xtb: 6.6.1 (8d0f1dd)
C            3.15624177257017        1.31481438737095        0.07865236372910
N            2.24566206718894        0.20178250226213        0.02134000064319
C            2.60640531803216       -1.08649804927692       -0.01862678352746
N            1.42792830529054       -1.78681120642892       -0.02096189283194
C            0.36030686644636       -0.94631212096848       -0.00227226647228
C            0.86561180462608        0.33493236577154        0.02811898121829
C            0.01024307648673        1.48388793079418        0.00786649423424
O            0.34348402534218        2.65219375561928        0.00588044232892
N           -1.34346902280870        1.10785992966430       -0.02382498581309
C           -2.33218093408979        2.17603202244752       -0.04489340763664
C           -1.87038964716829       -0.16770111606067       -0.04444919841835
O           -3.06396372086009       -0.36648194995817       -0.07424228178642
N           -0.96860318737883       -1.22582730151091       -0.03094116065175
C           -1.46081356975477       -2.58647820381578       -0.05548398603816
H            3.55851904289544        1.42449625199303        1.08789869820582
H            3.98475563618434        1.14852017773738       -0.60778413772676
H            2.62269373423247        2.22558872542409       -0.18796157566642
H            4.87956219786910       -3.60568898050155        0.11313709159060
H           -1.80040453058210        3.12453686008332       -0.01932216934281
H           -2.93619759223207        2.10375721148701       -0.94860132371576
H           -2.98720211546054        2.08359217813795        0.82050882907778
H           -1.14029482605212       -3.12729132243128        0.83670953093159
H           -1.10549982006799       -3.10626961680417       -0.94740713839639
H           -2.54858516253362       -2.53701701498534       -0.07666849283989
H            1.40022291055788       -2.79262764618057       -0.03814698763476
