72
 energy: 4.447186675658 xtb: 6.6.1 (8d0f1dd)
N           -1.61820033954863        2.87313078006643        2.33342938251848
C           -1.60601308775435        2.16889356754990        1.29570758576936
C           -2.73746230133283        2.06060467229180        0.31342681089296
C           -3.32305488532683        0.65816654022048        0.38805418191612
C           -4.24352993535622        0.23594089594305       -0.57154449565074
C           -4.80253041030655       -1.02708116727934       -0.53017901587171
O           -5.71177705290986       -1.51506542596477       -1.42026639025063
C           -6.21229195329020       -0.65284988560618       -2.40833877217855
C           -4.43274199308841       -1.92327016774691        0.49633858838949
O           -5.03074678320666       -3.14729156898527        0.44728632228857
C           -4.76702490556014       -4.06141534254994        1.47982842044951
C           -3.52508702468841       -1.50308168273272        1.44944255533452
C           -2.97817774752890       -0.22549572468186        1.39418045522748
C           -2.09071955390684        2.27819555363249       -1.07785159156534
C           -1.18318931714464        1.12434854005472       -1.53712009722253
C            0.05940438395509        1.00864861134975       -0.71713753920963
N            0.64169975240596       -0.20402627703517       -0.38582515738349
C            2.04354193788828       -0.31750521839216       -0.13684661365418
C            3.02395132020835       -0.46757408271010       -1.57144150629386
C            4.44458185197414       -0.38441275554993       -1.12920984726631
C            5.19780858769696        0.76537179002817       -1.30018944648492
C            6.47237761727168        0.87528225696534       -0.75856465459646
C            7.01934360969849       -0.16602799066730       -0.03118326668731
O            8.24474136516130       -0.16072061859904        0.56992741374979
C            9.05058688489780        0.97816154227817        0.43124585821867
C            6.27775015320227       -1.35838737350168        0.12720515949104
O            6.90349223880150       -2.33765497317996        0.83788627543683
C            6.24571886735968       -3.56434507678678        1.01623566456256
C            5.01378621052371       -1.45131346795218       -0.41767041969167
C           -0.14100412064183       -1.40710498100855       -0.45937188518400
C           -3.87905946458938        3.08695798570218        0.54785501063192
C           -4.59381256512176        2.82333773433347        1.87053886228046
C           -3.39879129228210        4.53622689847401        0.50339609290836
H           -4.52995279993355        0.91512961797108       -1.35785696783616
H           -6.68981086251302        0.22952368960196       -1.97003511506551
H           -6.95515918026383       -1.23521756965514       -2.95085441784196
H           -5.42922140362785       -0.33133344703127       -3.10253772242932
H           -5.05616567861293       -3.66125020312262        2.45744555622430
H           -5.37261433888119       -4.93802098440419        1.25464210961101
H           -3.71111094012485       -4.35012716568019        1.50776260125033
H           -3.23702667952074       -2.15864413163253        2.25632170964812
H           -2.29159080467385        0.07731821437564        2.16978650413083
H           -2.87989258085379        2.42038421941533       -1.81589844606420
H           -1.50184382196003        3.19586921202019       -1.05016791540310
H           -1.75932327157576        0.20020580772972       -1.53313652273968
H           -0.90735974825035        1.32671287827300       -2.58037068246995
H           -0.72607740261666        1.60290742975884        0.92742734725892
H            0.74285924594355        1.84169337764149       -0.75370490023679
H            2.19749604868511       -1.10513725522445        0.61726800469424
H            2.33654171738537        0.64991457405167        0.32967546367785
H            2.84046139448122        0.25642746119201       -2.39667482416753
H            2.77639964178212       -1.48488666115906       -1.87019904877669
H            4.79676963796429        1.59702088670439       -1.85994514482997
H            7.02950224110125        1.78971966694537       -0.90412815653599
H            8.57729636166119        1.86431549990770        0.86501919272768
H            9.29812827811254        1.18010643530067       -0.61489199112270
H            9.96360492571120        0.75517649748032        0.98134427217734
H            6.93542312540449       -4.18735117789131        1.58103433797768
H            5.31473548370201       -3.45275298102632        1.58353288085419
H            6.02866946179707       -4.04944888325910        0.05997475034334
H            4.44315671563199       -2.36041991975136       -0.30218219824198
H           -0.31777757160994       -1.70847515726482       -1.49826534932866
H           -1.10887683275421       -1.27534466008271        0.03691380367707
H            0.40406062799078       -2.20004400486633        0.04650506197044
H           -4.60332153544360        2.94752876174339       -0.26538682950704
H           -3.90422392800060        2.97168053366986        2.69292543863027
H           -4.97669629650403        1.80639020965190        1.90767340392304
H           -5.42783312488471        3.51302102637281        1.98198529197928
H           -2.65936085407054        4.70850173293982        1.27790636748820
H           -2.97123462574405        4.79054118027394       -0.46337493216787
H           -4.24104685981190        5.20115409650173        0.68166092304454
H           -0.77457383209864        2.86736644665738        2.90075933773973
