72
 energy: 0.483412286598 xtb: 6.6.1 (8d0f1dd)
N           -1.59910895948323        2.85994866740282        2.31900688061922
C           -1.59761714716812        2.16539039482908        1.27431769718841
C           -2.73885056840494        2.06054930343325        0.30336598581309
C           -3.32222429048135        0.65705830094106        0.37891947817533
C           -4.25259049077004        0.23755246574598       -0.57224789096626
C           -4.80941537690505       -1.02632622228266       -0.53022212716895
O           -5.72741710619938       -1.51181573634742       -1.41256159945243
C           -6.23873149192258       -0.64668650437623       -2.39238015704017
C           -4.42788849303269       -1.92603868764674        0.48873467468134
O           -5.02546055029130       -3.15042354617567        0.44170372010605
C           -4.75234151063459       -4.06702682480001        1.46952082001410
C           -3.51030585850864       -1.50869397962725        1.43334746795387
C           -2.96523117260478       -0.23040622995234        1.37738917490889
C           -2.10548648946844        2.28133507660311       -1.09353028880707
C           -1.19306251999852        1.13270827186203       -1.55588230923772
C            0.05268040437616        1.02687732948637       -0.74072817655306
N            0.64304149521597       -0.18282084463466       -0.41259154734679
C            2.05002811865987       -0.28103632812927       -0.15240606788904
C            3.00507219623043       -0.47522500954551       -1.52564621555717
C            4.43217913439546       -0.39131367580599       -1.08769598016473
C            5.18033109258971        0.76006160937763       -1.26384480616816
C            6.46068152069362        0.87062256060053       -0.73650513947930
C            7.01646760979252       -0.17223273777685       -0.01838708918526
O            8.24985515070433       -0.16821708488170        0.56480802187454
C            9.05362331970642        0.97100665455791        0.41553648897471
C            6.27646370972749       -1.36431586124008        0.14911065499482
O            6.91052132645916       -2.34386991376192        0.85141899628770
C            6.25581902913811       -3.57146339352647        1.03594352822951
C            5.00609520810628       -1.45729253745466       -0.38155867899853
C           -0.12736689185585       -1.39299995157487       -0.48372578996732
C           -3.87818958642838        3.08557546372402        0.55279429985493
C           -4.58010882623274        2.81659720397146        1.88120608193964
C           -3.39861324130303        4.53511420669753        0.50991885029744
H           -4.54873889521655        0.91960400845718       -1.35231848666712
H           -6.71266846421802        0.23374457182267       -1.94626042073850
H           -6.98663771055118       -1.22807312196670       -2.92893551975791
H           -5.46310023078946       -0.32229076734187       -3.09363412826817
H           -5.03150953593536       -3.66881994933354        2.45080509917915
H           -5.36111218028267       -4.94246018063625        1.24842572206491
H           -3.69647978509545       -4.35693074108468        1.48606252584498
H           -3.21286293589806       -2.16732648074087        2.23417045494731
H           -2.27065129893118        0.06988806953719        2.14673307354021
H           -2.90106339713696        2.41558279773842       -1.82612535602008
H           -1.52315804329423        3.20333543404666       -1.07209376914740
H           -1.76380505302792        0.20523836290918       -1.54649600539052
H           -0.92141322187487        1.33390376575429       -2.60004462847796
H           -0.71915439705679        1.60892783164490        0.88515885954587
H            0.73263252469578        1.86215725384179       -0.78261160907277
H            2.19337048218831       -1.04210347792321        0.63252753717112
H            2.33102623460546        0.69709441539074        0.29801034873041
H            2.82431057469817        0.23813724857228       -2.35722201841850
H            2.76405564784359       -1.49637044370378       -1.82286192014307
H            4.77184424980033        1.59197020430508       -1.81776330234986
H            7.01530441516951        1.78534423871458       -0.88751986239538
H            8.58751377847431        1.85662893391426        0.85825085427702
H            9.28445338118348        1.17427729907470       -0.63421942426465
H            9.97496214183653        0.74631760215069        0.95040993451323
H            6.95300473642763       -4.19439724907233        1.59178527240557
H            5.33199984110244       -3.46094486640030        1.61480885044113
H            6.02756397805481       -4.05562632940420        0.08167569631997
H            4.43630016244940       -2.36587075715323       -0.25918642315109
H           -0.30429453621949       -1.69717751446532       -1.52184810178795
H           -1.09559585404294       -1.27157478286734        0.01449864783617
H            0.42674893787879       -2.18044749472442        0.02109294984073
H           -4.61017278586396        2.94930699372503       -0.25386603757599
H           -3.88293280139623        2.96200293652215        2.69778191124243
H           -4.96227024825413        1.79938821537401        1.91803791591815
H           -5.41330413249190        3.50540390635458        2.00306775921750
H           -2.65110937328662        4.70449425679306        1.27736754833149
H           -2.98128767926863        4.79398975093499       -0.45999653403210
H           -4.23917694062215        5.19890734492367        0.69978758773361
H           -0.74823987393206        2.85282682350081        2.87552862907634
