72
 energy: 28.272375496013 xtb: 6.6.1 (8d0f1dd)
N           -1.67728602530477        2.90779278870117        2.37897395674792
C           -1.63253364869486        2.18111518963370        1.36007209928995
C           -2.73376388930111        2.06066592315021        0.34411507834908
C           -3.32594699012995        0.66119732581734        0.41597666702930
C           -4.21646454162161        0.23086290123811       -0.56849305067590
C           -4.78226399852007       -1.02953045718384       -0.52987990214135
O           -5.66415873412296       -1.52433829836678       -1.44261209483938
C           -6.13219827081104       -0.67153236594872       -2.45547929551792
C           -4.44790094082418       -1.91522600423142        0.51896501700745
O           -5.04629752411097       -3.13762512462198        0.46406683916963
C           -4.81152031369359       -4.04481912869130        1.51033817431270
C           -3.57029105695931       -1.48633320970048        1.49677594039198
C           -3.01772299308764       -0.21076051452161        1.44411052290185
C           -2.04551857144627        2.26818032083321       -1.02913790369519
C           -1.15404997925255        1.09784024441084       -1.47971394624265
C            0.08420017819766        0.94166637612301       -0.65361882476067
N            0.62425210873272       -0.25644265604729       -0.30015947601530
C            1.95024002643370       -0.41969418951791        0.03211600105869
C            3.15417835997802       -0.44441148582988       -1.80166671704317
C            4.48774004892259       -0.36512291310620       -1.27183454328069
C            5.25867468487033        0.78697975563085       -1.40988809598004
C            6.50870333165190        0.89219314610084       -0.82387821924397
C            7.02711108235922       -0.14734475100570       -0.07021434943471
O            8.22873786532404       -0.13916597212195        0.58316226912552
C            9.03914972895040        0.99864446361191        0.47807006396241
C            6.27840465804427       -1.33933180971009        0.06176916970539
O            6.88076888049221       -2.31841589758136        0.79838019403256
C            6.21649085416771       -3.54288896404716        0.95740231750404
C            5.03820100834436       -1.43378008573680       -0.52733159587137
C           -0.18817477944192       -1.44739903864716       -0.38436627713721
C           -3.88146681390455        3.09087585145799        0.53384518249543
C           -4.63472860197746        2.84382398740309        1.83870929959470
C           -3.39901318145989        4.53919717166562        0.48414023705343
H           -4.47376769544245        0.90149322912850       -1.37224638405972
H           -6.62061103896249        0.21633906387648       -2.04130530193738
H           -6.85943634802408       -1.25729120206826       -3.01538047769080
H           -5.32741429588596       -0.35885902339580       -3.12845501869909
H           -5.13070940599790       -3.63912656160306        2.47626296722783
H           -5.40744657999789       -4.92468540519684        1.27263709724927
H           -3.75626790991653       -4.33004245116947        1.57227991042275
H           -3.31053677041604       -2.13245487852342        2.32095187901498
H           -2.35587206792214        0.09944945125875        2.23839314501130
H           -2.81438344628528        2.43314447809166       -1.78406610601141
H           -1.43851297989517        3.17317320348314       -0.98298485486365
H           -1.74738513523405        0.18541172125891       -1.49331600631337
H           -0.86184986162367        1.30416438855165       -2.51836164836805
H           -0.74987505292620        1.59085974374699        1.05700299022717
H            0.76965926624487        1.77699126880093       -0.66248309110454
H            2.16047469873103       -1.29343373476440        0.63954285304411
H            2.35120308582233        0.51794528837271        0.43277748286413
H            2.91633695161176        0.31121469764608       -2.56517892375761
H            2.81026461579868       -1.44698817455540       -2.00693923813241
H            4.87595897703550        1.61363969910453       -1.98866376456911
H            7.07530877885689        1.80321479226298       -0.95619129703526
H            8.54509568395309        1.88657267194580        0.88447225029703
H            9.33744804871680        1.19738378455442       -0.55530477723860
H            9.92499982294924        0.78058224382715        1.07393119111431
H            6.88426551282199       -4.16512795285658        1.54865863371062
H            5.26477794788630       -3.42925295887750        1.48958509889233
H            6.03323526450083       -4.03161669140655       -0.00400539981992
H            4.46316971158167       -2.34276796916321       -0.43144252743549
H           -0.35507601473584       -1.73718178616295       -1.42607849534186
H           -1.15522871066959       -1.28901457153940        0.10290016146543
H            0.33341669589272       -2.25474386307370        0.12259853232589
H           -4.58206880431676        2.94144559342099       -0.29836836466899
H           -3.96892520980422        3.00095189190063        2.67880257050261
H           -5.02063840552703        1.82801770962532        1.87710163901426
H           -5.47036533863345        3.53616499854679        1.91842402484655
H           -2.68400484267481        4.72125843316956        1.27883286193001
H           -2.94140292078151        4.77996022414749       -0.47254080264375
H           -4.24573139404373        5.20688021885431        0.62759387207783
H           -0.85434972318782        2.91148311570540        2.97568650463148
