72
 energy: 36.261465109484 xtb: 6.6.1 (8d0f1dd)
N           -1.82269685941943        2.99143450096341        2.47929492611545
C           -1.69898851352259        2.20596568820147        1.51088788624617
C           -2.72152602449778        2.06006173108974        0.41587821830302
C           -3.33074512694900        0.66834264192956        0.48013043687985
C           -4.15173919177348        0.21832292936623       -0.55585990344381
C           -4.73343673044257       -1.03506250768079       -0.52588059498178
O           -5.55212878306970       -1.54451806457983       -1.48904531782665
C           -5.94030182464960       -0.71611954162636       -2.55486194411177
C           -4.48511699429044       -1.89398014159411        0.56871035235633
O           -5.08285042062348       -3.11652243041820        0.50283926907186
C           -4.91596720023038       -4.00403800985781        1.57833877988002
C           -3.68273669210601       -1.44330053690559        1.59967859124862
C           -3.11599542188609       -0.17388709231078        1.55514406465481
C           -1.94480751961773        2.24159784119092       -0.91525184154207
C           -1.09023973550805        1.03637042154336       -1.35654213521593
C            0.12957728655538        0.80496080743746       -0.51675070834380
N            0.57089456804706       -0.37612898466318       -0.07981508495871
C            1.74482374192611       -0.60765791844976        0.49977034021186
C            3.42672290871423       -0.39941845040887       -2.29672401976263
C            4.60834535113264       -0.32238203734055       -1.58871386411122
C            5.41148154363441        0.83397879399731       -1.66177748423241
C            6.59854701641691        0.93214131414491       -0.97564212567574
C            7.04540003548109       -0.10168023252104       -0.15873173983127
O            8.17509185330122       -0.08859287273812        0.60265903307468
C            8.99978540156907        1.04535542703138        0.58238337972435
C            6.28130764714839       -1.29647390360441       -0.08670708948838
O            6.81731130567411       -2.26555615355781        0.71004753361292
C            6.14633519894923       -3.49256054951258        0.82049857646717
C            5.10136463124510       -1.39417723080765       -0.77801870658600
C           -0.29698763283563       -1.53027559059731       -0.20753891874276
C           -3.87885153488582        3.09621383156965        0.50149487613972
C           -4.72288067991534        2.88931403627233        1.75841602071836
C           -3.39437022991005        4.54358846689663        0.44001431587504
H           -4.33980312541082        0.86765159182767       -1.39496890887878
H           -6.45414795257986        0.18368762006712       -2.20201673559131
H           -6.62896725333462       -1.31198686817174       -3.15196169027535
H           -5.08821640740596       -0.42440371405639       -3.17719468509852
H           -5.30578142058081       -3.58706603048314        2.51275968505823
H           -5.48821867267976       -4.89192830940240        1.31404023612338
H           -3.86625028172815       -4.28096099667328        1.71918871762136
H           -3.49168953169201       -2.06690339553993        2.45884583191103
H           -2.51394562156758        0.15228753183238        2.38901649041148
H           -2.66384340435062        2.45891915543309       -1.70757733571530
H           -1.29704333437589        3.11436059890414       -0.82429838771662
H           -1.72093226642511        0.15077488705393       -1.39884907890433
H           -0.76992155865034        1.25247089505791       -2.38621160268418
H           -0.81683977689909        1.57342436570555        1.35292717944956
H            0.81906642605239        1.63657671167751       -0.45538746073231
H            1.95098826675019       -1.55212751291533        0.96340462237745
H            2.37528947030468        0.24494004428379        0.68190006592862
H            3.11245760750028        0.39575617820222       -2.95889466720726
H            2.89995646017737       -1.34177363424025       -2.31921778952292
H            5.07535467499546        1.64892788664851       -2.28000462009581
H            7.18326224501856        1.83567372722840       -1.07328022776898
H            8.46767550469722        1.93968744296038        0.92020854983483
H            9.41970898900392        1.23018939066722       -0.40980606226914
H            9.80820241416202        0.83078378655672        1.28026760360652
H            6.76174374972718       -4.10932599265473        1.47163023358232
H            5.15252220547278       -3.37655397013907        1.26599278476373
H            6.04785117661578       -3.98590312474163       -0.15065160185067
H            4.51442615777681       -2.29803598359159       -0.72684196798287
H           -0.43747951823893       -1.79849216198554       -1.25687909724974
H           -1.26598843888730       -1.31993100814562        0.25107359451298
H            0.16256951076702       -2.37174225498403        0.30195182382768
H           -4.52240737896658        2.92139466067331       -0.36990000193390
H           -4.11821118592527        3.06766399524108        2.64002366611064
H           -5.11845286754495        1.87718142584151        1.80049064069955
H           -5.55829472051125        3.58628014337728        1.76011479748998
H           -2.73948401825466        4.75186503069695        1.27862886641189
H           -2.86651638081983        4.75251982094117       -0.48690315007237
H           -4.24914199942077        5.21344266675230        0.49890782256972
H           -1.05027533811548        3.01237876274205        3.14092962018705
