72
 energy: -5.123569292240 xtb: 6.6.1 (8d0f1dd)
N           -1.54346620347865        2.81667411438126        2.27672710774873
C           -1.57339566376327        2.15610037683410        1.20987970632971
C           -2.74298989430651        2.06014790664828        0.27310195502029
C           -3.31942142488130        0.65320740538393        0.35151648367911
C           -4.27913740723067        0.24200710982243       -0.57415900381274
C           -4.82972902285091       -1.02430357149403       -0.53040589158697
O           -5.77378020001193       -1.50151556760182       -1.38895814907125
C           -6.31746604763394       -0.62810044763061       -2.34383231658699
C           -4.41332722552979       -1.93430438522643        0.46577168371335
O           -5.00913963979456       -3.15954079610351        0.42551075482684
C           -4.70829594801350       -4.08377724150711        1.43876678393092
C           -3.46639411437926       -1.52549350686157        1.38440661876941
C           -2.92647989943010       -0.24516628377580        1.32641043575709
C           -2.15052196989898        2.29041037846884       -1.14042807658151
C           -1.22528909477948        1.15635916827047       -1.61164535580334
C            0.02927887831008        1.08086959851487       -0.81310135364847
N            0.64004410217277       -0.11497958834244       -0.48917946445407
C            2.03252486293313       -0.15909237211129       -0.15724770354044
C            2.96717000028387       -0.50505968437077       -1.40000886778161
C            4.39622520676155       -0.41317764483099       -0.96316931000446
C            5.12787972093329        0.74540751961716       -1.15225170072120
C            6.42394713899409        0.85736710317137       -0.66854334252749
C            7.00697730293375       -0.19041024111506        0.02017041654286
O            8.26413149334954       -0.19019717737623        0.54774707396825
C            9.06150491042958        0.94977636439401        0.36812605415064
C            6.27322605531032       -1.38220519597136        0.21484112478373
O            6.93217701365920       -2.36321769843781        0.89146388540921
C            6.28597783109363       -3.59270200856717        1.09444557554497
C            4.98533448818482       -1.47612500886301       -0.27263118494643
C           -0.08867674013724       -1.34869028828837       -0.55318051845386
C           -3.87433258913045        3.08160283683177        0.56767249608736
C           -4.53781732007236        2.79657141605632        1.91258082555176
C           -3.39626720533709        4.53184324663369        0.52903907807764
H           -4.60428378579223        0.93240287419837       -1.33483627255689
H           -6.78062312284009        0.24631619754001       -1.87478093063209
H           -7.08043459235958       -1.20670366528352       -2.86188333773691
H           -5.56501124412921       -0.29535366316909       -3.06653735341021
H           -4.95748468195670       -3.69177204695669        2.43052668599597
H           -5.32667757509481       -4.95542135925425        1.22987233964204
H           -3.65336850543655       -4.37757827163059        1.42101999974545
H           -3.14145726407036       -2.19281203722995        2.16691197249565
H           -2.20829242549149        0.04727292632561        2.07673534280586
H           -2.96419254350150        2.39997285675549       -1.85700110153615
H           -1.58735103349614        3.22458111839711       -1.13809364636547
H           -1.78044504165674        0.21951433683951       -1.58532443426504
H           -0.96414176853115        1.35376017302570       -2.65803640585243
H           -0.70061947719092        1.62917434902421        0.76023280660305
H            0.69587233130219        1.92527263034764       -0.86542389553195
H            2.15703624960209       -0.85323113626788        0.69033705846336
H            2.31021843907056        0.84355408922681        0.20660689959319
H            2.79365092645251        0.15852209200154       -2.25998096496226
H            2.72557829026168       -1.53448708218254       -1.67289466357344
H            4.69592966153625        1.57735826582817       -1.68819536127438
H            6.97032305332298        1.77279180225471       -0.83657252671002
H            8.61849354694031        1.83362670409770        0.83826351835823
H            9.24219662660008        1.15793189092821       -0.69094642324128
H           10.00654206193341        0.71922248230741        0.85635155821774
H            7.00466368068555       -4.21598286368137        1.62281874740064
H            5.38468388992080       -3.48429176406640        1.70778876737293
H            6.02317700109006       -4.07373730452826        0.14686049440248
H            4.41802486677012       -2.38315132133559       -0.13135508074441
H           -0.26345522895269       -1.65934822616859       -1.58927679358026
H           -1.05669759723067       -1.25758468718487       -0.04899542564073
H            0.49392188169847       -2.11801817795233       -0.05206943717198
H           -4.62892073879965        2.95438478625705       -0.21868692168712
H           -3.81912602528018        2.93271456810820        2.71256525759875
H           -4.91852190746427        1.77879628156801        1.94836314218693
H           -5.36785445776650        3.48272231413066        2.06512661020064
H           -2.62483311168098        4.69361948537568        1.27471017332020
H           -3.01008127201021        4.80448780922732       -0.44976688885669
H           -4.23124726985691        5.19171572029978        0.75350809664850
H           -0.67060553154102        2.80955052979618        2.79924586089611
