72
 energy: 36.099793544399 xtb: 6.6.1 (8d0f1dd)
N           -1.74014760267350        2.94289723703448        2.42495657915020
C           -1.66060340043374        2.19204504168475        1.42561112566108
C           -2.72888522137284        2.06048511777451        0.37510738869920
C           -3.32805958757174        0.66433027330246        0.44360226514530
C           -4.18865336842867        0.22545567365415       -0.56378304034042
C           -4.76126694948413       -1.03198741722909       -0.52857672714251
O           -5.61615322737833       -1.53335699993991       -1.46344481888065
C           -6.05032918935001       -0.69032665522511       -2.49944305847106
C           -4.46353842583617       -1.90652231506503        0.54064962213277
O           -5.06212262498523       -3.12864531604285        0.48055233702991
C           -4.85650728662176       -4.02775223671883        1.53973858056027
C           -3.61751662564984       -1.46855364040964        1.54191421368860
C           -3.05903105641565       -0.19549958857993        1.49246844431127
C           -2.00072331393537        2.25635786355316       -0.97988605584105
C           -1.12383237599174        1.07094297044242       -1.42495439155367
C            0.10841308714363        0.87676895256557       -0.59074680442451
N            0.60619725995862       -0.30803774133909       -0.20845999784156
C            1.83911947524420       -0.51720050719291        0.26897456720737
C            3.30225261366620       -0.42120245569708       -2.05897979638434
C            4.53351437564736       -0.34406095567363       -1.41497937326259
C            5.32471503001935        0.81223398980815       -1.51854907430303
C            6.54534240640882        0.91104245964821       -0.88927889391868
C            7.03434085642568       -0.12792988626694       -0.10807817126414
O            8.20628242973903       -0.11764564566977        0.59185056414816
C            9.02296803243487        1.01891141335609        0.52305916164698
C            6.27667005971139       -1.32151573893770       -0.00285555118479
O            6.85370594123285       -2.29677089613205        0.75857495755242
C            6.18560405308603       -3.52153288941931        0.89879934185666
C            5.06256601310574       -1.41672068617696       -0.63531936971719
C           -0.23440205159351       -1.48519004892236       -0.31003081749118
C           -3.88132603081242        3.09360798116433        0.51959168602392
C           -4.67350791580812        2.86356870255960        1.80487581935101
C           -3.39716265003760        4.54114126465507        0.46487144392781
H           -4.41635897814040        0.88729646841611       -1.38323759505608
H           -6.54951714849835        0.20282975733893       -2.11059972205052
H           -6.76148861142353       -1.27976513523775       -3.07589165414880
H           -5.22471598770115       -0.38669013239647       -3.15089311505989
H           -5.20584820597437       -3.61706529295105        2.49286430887055
H           -5.44247198002318       -4.91100288453917        1.29038283904162
H           -3.80306877328637       -4.30956880351442        1.63553715165064
H           -3.38698225976211       -2.10516797387621        2.38183396898765
H           -2.42251484679065        0.12187093922842        2.30414202263926
H           -2.74907193910026        2.44367058935770       -1.75124609743071
H           -1.37705655266968        3.14870864106010       -0.91523831604346
H           -1.73431320172685        0.17064619074539       -1.45209734089958
H           -0.81966779458092        1.28166199992170       -2.45986872989534
H           -0.77740025675779        1.58374659661168        1.18560381751343
H            0.79404816473110        1.71424545922477       -0.57138504020860
H            2.07427048588279       -1.44382273945606        0.75705439505704
H            2.37060367825375        0.38922631094126        0.52915975987366
H            3.00364123614765        0.36106990193201       -2.74847163400074
H            2.83776376339306       -1.39133638761505       -2.13066106530532
H            4.96029446075609        1.63183693279528       -2.11548694623612
H            7.12117404449790        1.81768646048318       -1.00677089651253
H            8.51150085737618        1.90897172636143        0.90163331891505
H            9.37246993737983        1.21302095053924       -0.49449625669010
H            9.87778411966734        0.80314127926905        1.16301158237164
H            6.83164035091200       -4.14135696235746        1.51595537835732
H            5.21541201601908       -3.40591662951927        1.39490313809387
H            6.03719595541720       -4.01304354339147       -0.06689386126988
H            4.48341264798604       -2.32441003751675       -0.56036487320534
H           -0.39106897612921       -1.76514348441572       -1.35466037379963
H           -1.20076624140984       -1.30261617923162        0.16718879369976
H            0.26103368224927       -2.30768599076457        0.19790842098545
H           -4.55752070821335        2.93351475741391       -0.33023597269985
H           -4.03284115157218        3.02943656144061        2.66273898282217
H           -5.06310494974726        1.84915704741877        1.84460524916366
H           -5.50972814687638        3.55816032549704        1.85170128099973
H           -2.70744136089680        4.73364096996204        1.27903122522906
H           -2.90893762436475        4.76787169778362       -0.47979732830686
H           -4.24740066170480        5.21085283145153        0.57221040315056
H           -0.93735329306056        2.95381744743472        3.04874576421051
