72
 energy: 35.610063022521 xtb: 6.6.1 (8d0f1dd)
N           -1.88966452236363        3.03559703756264        2.51822051335774
C           -1.73313926627632        2.22007774978360        1.57771284376582
C           -2.71463234073491        2.05932414634522        0.44741043880215
C           -3.33365049298444        0.67281284270194        0.51200687674568
C           -4.11991688001734        0.21262764253872       -0.54736776830731
C           -4.70782808702054       -1.03749498599865       -0.52142082636709
O           -5.49010804724434       -1.55635285871213       -1.50937732941141
C           -5.83359824240752       -0.74296426382732       -2.60211036546906
C           -4.50703206437059       -1.88047039725980        0.59551718107620
O           -5.10266222764623       -3.10380931221197        0.52480123703423
C           -4.97142207031196       -3.97920645563072        1.61532603947115
C           -3.74645979610524       -1.41590916028426        1.65158571505361
C           -3.17034794263671       -0.15072491238164        1.61023835009925
C           -1.89908868401996        2.22642358398646       -0.86513548937015
C           -1.06573015834640        1.00742328395816       -1.30687280043552
C            0.12979630334594        0.75862379482743       -0.45393284291501
N            0.50582491666434       -0.41099089285972        0.04764051614967
C            1.63252090263071       -0.60130218816233        0.71986141219390
C            3.56132398417726       -0.41178735235118       -2.51384661065094
C            4.70339844541396       -0.30921290348946       -1.75480994147011
C            5.50749752949472        0.85933997685019       -1.78689097574705
C            6.65126401006480        0.96499915587888       -1.03316177202052
C            7.05180539622558       -0.07527352229629       -0.19851312349061
O            8.14464118081229       -0.06843794444573        0.61350035218615
C            8.97375564114318        1.06363862062658        0.63267710886152
C            6.27852338733795       -1.26855108238056       -0.15682014184490
O            6.77111372141865       -2.22829923573783        0.68141960961941
C            6.10753886429732       -3.46253048304268        0.75410507906362
C            5.14538537977836       -1.37779739775787       -0.91617302283030
C           -0.36632832855783       -1.56242207362717       -0.11782453249276
C           -3.87288212595244        3.09835041497267        0.48253989541258
C           -4.76362080409890        2.91405347372633        1.71064728442232
C           -3.38821163941227        4.54534439745364        0.41602238643282
H           -4.27327401995994        0.85010282555133       -1.40262072303602
H           -6.36170324300481        0.16231837968934       -2.28397502185138
H           -6.50014332434168       -1.34800134721291       -3.21505734395606
H           -4.95671507969682       -0.46308462809345       -3.19642854180384
H           -5.39811250373065       -3.55484719038007        2.53019292157487
H           -5.53120949597873       -4.87149826762129        1.33921626233887
H           -3.92519799495096       -4.25124591183223        1.79461736728146
H           -3.59301583153295       -2.02715444614814        2.52660258132784
H           -2.59951337381525        0.18428196959677        2.46210788495264
H           -2.59318975446446        2.46398496683970       -1.67374959730432
H           -1.22866300051555        3.07993219817961       -0.74747485787591
H           -1.71206954242472        0.13321566327959       -1.35633731390033
H           -0.72935977393489        1.22410429654287       -2.33124487891833
H           -0.84940038571693        1.57654003648382        1.45745993078114
H            0.83603933526637        1.56668299019175       -0.34484396239140
H            1.83216788184753       -1.54255716252103        1.18345409644863
H            2.30437022113228        0.22060764855293        0.85771580275225
H            3.24694006344591        0.38906516754415       -3.15774239338070
H            2.97055210735966       -1.30972986686701       -2.50068542572600
H            5.20262107467082        1.66848955858725       -2.43155035766332
H            7.23533575364108        1.87174050101003       -1.08154176220988
H            8.42888304688806        1.96539457126090        0.93167597636366
H            9.44864059830702        1.23231288123657       -0.34030656187945
H            9.74158030954412        0.84429458221895        1.37336068119764
H            6.70071570257678       -4.07180145473959        1.43539888955972
H            5.09378660863739       -3.35760529088619        1.15629216510498
H            6.06068597363113       -3.95484508447239       -0.22340221552456
H            4.54923861590521       -2.27645878338861       -0.89492323060921
H           -0.47764278553570       -1.80335524721975       -1.17541797563126
H           -1.34900769451105       -1.35060354446790        0.30440429641114
H            0.05931970543561       -2.42160127964631        0.39564544467178
H           -4.48795082707815        2.90997822391123       -0.40565086651829
H           -4.19147400089539        3.10539899055492        2.61211306536845
H           -5.16667806085719        1.90494674006092        1.75500611927057
H           -5.59551960455333        3.61342632060411        1.66803241993322
H           -2.76058300590984        4.76622631965909        1.27313478327397
H           -2.82989873578007        4.74140866069375       -0.49536863342413
H           -4.24684013734522        5.21304100351184        0.43332906706341
H           -1.14320333406897        3.06306006931602        3.20986549949248
