72
 energy: 19.429409028191 xtb: 6.6.1 (8d0f1dd)
N           -1.65688474679231        2.89654814631721        2.36325570981932
C           -1.62326128301639        2.17674318758105        1.33834423239318
C           -2.73483059994720        2.06064093570105        0.33365895729940
C           -3.32490352876701        0.66020685117504        0.40653085056903
C           -4.22548976765086        0.23262971575895       -0.56977818049948
C           -4.78901272554609       -1.02866598577022       -0.53007870626360
O           -5.68022265094149       -1.52126860635199       -1.43538042870557
C           -6.15918728698172       -0.66521841734197       -2.44005293817794
C           -4.44273744776659       -1.91785778948152        0.51146894603460
O           -5.04113145363266       -3.14084282161950        0.45849782100017
C           -4.79655702899562       -4.05033428030964        1.50027545059843
C           -3.55501573470477       -1.49192414929405        1.48122021622645
C           -3.00436769498492       -0.21565889848779        1.42757119803238
C           -2.06055134285720        2.27171091995973       -1.04581325606276
C           -1.16352527748082        1.10701658073880       -1.49915001435135
C            0.07461394255025        0.96714557314114       -0.67334157932363
N            0.63191951666384       -0.24136272050811       -0.32853552210993
C            1.99295162244110       -0.38467663363526       -0.04630743891494
C            3.09705663306190       -0.45259183973161       -1.70718757358082
C            4.47264048664866       -0.37121950960702       -1.22080509664702
C            5.23629943826984        0.77870400878192       -1.37317068289639
C            6.49617583417399        0.88600218328006       -0.80219062608816
C            7.02436087953424       -0.15356983185921       -0.05725898581371
O            8.23423916384969       -0.14630500114383        0.57906857239475
C            9.04340046097719        0.99181867986549        0.46251093250708
C            6.27864456601448       -1.34568867748530        0.08363166959107
O            6.88857010520112       -2.32498262769625        0.81133312703195
C            6.22612830619065       -3.55014658558424        0.97682948400936
C            5.02951559019143       -1.43926391674213       -0.49042064682232
C           -0.17146800070132       -1.43475181956775       -0.40901649060996
C           -3.88070401086539        3.08958259942188        0.53841165289136
C           -4.62118219360428        2.83692641401666        1.84936176382134
C           -3.39920369787249        4.53833163348767        0.49059213762208
H           -4.49252550277152        0.90605933386648       -1.36807212215744
H           -6.64396315254871        0.22087129013901       -2.01768831189317
H           -6.89173752175126       -1.24976447224500       -2.99428446046245
H           -5.36154216562370       -0.34954445605501       -3.12012391336193
H           -5.10569578486643       -3.64642732160641        2.47025461760617
H           -5.39575365096976       -4.92913057561872        1.26671765672916
H           -3.74092347127915       -4.33672373945022        1.55093543911852
H           -3.28566736297907       -2.14124787314339        2.29980904812274
H           -2.33407957700634        0.09204667058541        2.21571220236393
H           -2.83622416632276        2.42915532321980       -1.79510393527105
H           -1.45916098469301        3.18079185074986       -1.00571263031898
H           -1.75080401666737        0.19028265601793       -1.50650803621525
H           -0.87721660865203        1.31164742795445       -2.53968877395470
H           -0.74105654543082        1.59345733972556        1.01296344697310
H            0.76204128783990        1.79900611450724       -0.69438856393243
H            2.18191382933049       -1.23026466626232        0.61862641784587
H            2.34649491768365        0.56159924879611        0.39789470659111
H            2.88590828835763        0.29255569686683       -2.49994275510450
H            2.80114463512516       -1.46215166919636       -1.96481791454870
H            4.84801749284787        1.60796318772867       -1.94519360453438
H            7.05929210304939        1.79857067525720       -0.93874007507134
H            8.55597471862533        1.87903798895730        0.87821059432322
H            9.32474937225422        1.19166736957783       -0.57548263606716
H            9.93879220583731        0.77217997803163        1.04322569004495
H            6.90135036818429       -4.17272718702232        1.55918662315512
H            5.28118018370343       -3.43728921524665        1.52099666492539
H            6.03156173608824       -4.03757878206330        0.01699797774755
H            4.45590233397647       -2.34840499527089       -0.38791684375357
H           -0.34290240165458       -1.72885673330155       -1.44978276267165
H           -1.13879643053151       -1.28430910560673        0.08156340567806
H            0.35737842544268       -2.23742655434666        0.09813613335853
H           -4.58933775969746        2.94363319867124       -0.28765541626235
H           -3.94734331316078        2.99112376063803        2.68359259820164
H           -5.00594201108368        1.82067601653964        1.88727602198009
H           -5.45648060469935        3.52836562129477        1.93980096337703
H           -2.67599561178785        4.71699876442647        1.27870677367910
H           -2.95163088862991        4.78372381814731       -0.46964131501632
H           -4.24467220303761        5.20509570244153        0.64578740764368
H           -0.82719316192120        2.89685629826170        2.95071184376861
