72
 energy: 36.325603487626 xtb: 6.6.1 (8d0f1dd)
N           -1.76133709652764        2.95465507170392        2.43930679612233
C           -1.67032213364956        2.19510779408177        1.44737212284560
C           -2.72709269461236        2.06032952302579        0.38532717994902
C           -3.32877806367466        0.66537086017243        0.45271589236854
C           -4.17937782406534        0.22368473044254       -0.56205431393694
C           -4.75422914886319       -1.03275438556811       -0.52804390770761
O           -5.60007121571264       -1.53629023618005       -1.47015330572551
C           -6.02277156260594       -0.69683236695232       -2.51375481884717
C           -4.46886398076497       -1.90340728640193        0.54772813645806
O           -5.06743032979170       -3.12558179788689        0.48604316779329
C           -4.87161378858597       -4.02194042427104        1.54932521019142
C           -3.63362142635956       -1.46232604957262        1.55659312676095
C           -3.07314434245498       -0.19015434856826        1.50829423554841
C           -1.98608014373456        2.25256990908173       -0.96354828578908
C           -1.11453932591321        1.06210167832365       -1.40749230313038
C            0.11407349304542        0.85833545754970       -0.57029909398471
N            0.59910002304924       -0.32608117903092       -0.17657983330391
C            1.81595017360093       -0.54379735335976        0.32701388151599
C            3.33464429227510       -0.41334027277447       -2.12118056421987
C            4.55116720403976       -0.33802562696723       -1.45928571714970
C            5.34630638697492        0.81788697929432       -1.55558662819559
C            6.55819027130391        0.91607518032447       -0.91148232207714
C            7.03691744254302       -0.12144045808675       -0.12065095606937
O            8.19847831663542       -0.11044960300966        0.59465439086146
C            9.01740992828769        1.02550235143587        0.53788115225357
C            6.27754222974221       -1.31550409278890       -0.02400669517351
O            6.84495120071202       -2.28924253557159        0.74615195462403
C            6.17594871321060       -3.51451216200343        0.87935363183433
C            5.07173710387594       -1.41086135064704       -0.67121102039174
C           -0.24948637216995       -1.49714175650285       -0.28408538832280
C           -3.88092228807383        3.09426196447758        0.51499196922087
C           -4.68618299961354        2.87009253488987        1.79342997201541
C           -3.39653601291742        4.54168885440915        0.45858281172412
H           -4.39696695039016        0.88244081064161       -1.38663209617266
H           -6.52557935360753        0.19807702660642       -2.13374093336633
H           -6.72838657494944       -1.28775769252837       -3.09553681202867
H           -5.19038714708060       -0.39616147304678       -3.15792979596657
H           -5.23104924911865       -3.60973102098086        2.49797137569403
H           -5.45418908835369       -4.90631469741258        1.29601309633329
H           -3.81899189087626       -4.30261978626691        1.65651394723749
H           -3.41300437831793       -2.09565893823643        2.40157210525108
H           -2.44522338011179        0.12960121765543        2.32559074452277
H           -2.72705463139621        2.44795773880503       -1.74032704560937
H           -1.35619693307407        3.14002819267572       -0.89209553326707
H           -1.73013687439090        0.16550787553497       -1.43901625965898
H           -0.80611446028624        1.27417083340700       -2.44115804893289
H           -0.78679518716015        1.58104893055888        1.22771509751696
H            0.80056773754699        1.69488442224157       -0.54218926774298
H            2.04545878592036       -1.47780834229210        0.80354344343812
H            2.37231636020369        0.35030327484017        0.56428764479020
H            3.02940676358758        0.37277273341866       -2.80193936764342
H            2.85219294452328       -1.37585318205748       -2.17583240698338
H            4.98812359481223        1.63649471579553       -2.15714544608069
H            7.13583115799649        1.82200005764263       -1.02341939017991
H            8.50051812645256        1.91629964444511        0.90695141176831
H            9.38375845197482        1.21773718831078       -0.47403386248876
H            9.86154289023636        0.81025872828007        1.19195956057434
H            6.81486353319993       -4.13393089145706        1.50436750920517
H            5.19990814195910       -3.39910328393445        1.36350513464607
H            6.03945636468990       -4.00612890628185       -0.08794800722077
H            4.49056982196192       -2.31747480153388       -0.60136282052493
H           -0.40271347567209       -1.77335675861126       -1.33007067741432
H           -1.21588794602057       -1.30624207113762        0.18935686203858
H            0.23651331255131       -2.32502157273240        0.22402660822087
H           -4.54888369149203        2.93057231956237       -0.34047171358952
H           -4.05434630195985        3.03892681608264        2.65736075838723
H           -5.07728213205721        1.85623825479361        1.83378702213120
H           -5.52221721875395        3.56552343567306        1.82902220307629
H           -2.71538907581115        4.73797528086362        1.27901496126370
H           -2.89834581091330        4.76394319938543       -0.48183939682620
H           -4.24796398702997        5.21161483294503        0.55400519641854
H           -0.96542712372838        2.96843324988063        3.07206007697432
