72
 energy: 35.523816077013 xtb: 6.6.1 (8d0f1dd)
N           -1.71911497861522        2.93118810039693        2.41014478751442
C           -1.65110370995448        2.18869918492951        1.40391201855969
C           -2.73060197929742        2.06056896683716        0.36487707507181
C           -3.32736882208582        0.66327502078575        0.43449460967592
C           -4.19788863038242        0.22722119255704       -0.56544796290256
C           -4.76826884921046       -1.03121181942527       -0.52906234526226
O           -5.63207121521370       -1.53041857595671       -1.45663249415548
C           -6.07757437544010       -0.68399685527880       -2.48505335001495
C           -4.45829446555961       -1.90955976937699        0.53354088341075
O           -5.05687217276765       -3.13163531008830        0.47506866345251
C           -4.84164914124516       -4.03354246358122        1.53005629149430
C           -3.60159164330926       -1.47465880715018        1.52709779807941
C           -3.04509456048380       -0.20072206121710        1.47654667514969
C           -2.01528947154040        2.26013044655831       -0.99613399071648
C           -1.13347069483651        1.07961888509914       -1.44277755835521
C            0.10195694993520        0.89559516227311       -0.61187464015798
N            0.61218525026306       -0.28965364684013       -0.23937882604660
C            1.86482285363039       -0.48725711555182        0.20673916119014
C            3.26612448310204       -0.42900642083112       -1.99115372409186
C            4.51690804980285       -0.35072185557698       -1.37020125275339
C            5.30317114122983        0.80572220004557       -1.48178538917279
C            6.53254233316448        0.90569198915545       -0.86692394559792
C            7.03170269783523       -0.13443242231466       -0.09539595714349
O            8.21403686418681       -0.12494730533818        0.58900221431848
C            9.02833408523769        1.01215044468449        0.50784866672519
C            6.27626637199285       -1.32753690241101        0.01843084251962
O            6.86274896517942       -2.30422777968554        0.77137826489710
C            6.19607195845352       -3.52879357618402        0.91836579648932
C            5.05392858037435       -1.42264799895423       -0.59948303281741
C           -0.21960715573613       -1.47279471848628       -0.33545973952817
C           -3.88153951383010        3.09282229228773        0.52427832196823
C           -4.66074913928766        2.85713759520088        1.81626908999871
C           -3.39764564397945        4.54049453444022        0.47111990268889
H           -4.43551638848436        0.89205412287587       -1.37975871802911
H           -6.57310035304975        0.20744152532086       -2.08760465692220
H           -6.79417102931599       -1.27208064580504       -3.05609452545331
H           -5.25877883203041       -0.37739918417726       -3.14369428875724
H           -5.18092509093856       -3.62442812973967        2.48754150498517
H           -5.43099783193828       -4.91562649937702        1.28453489626246
H           -3.78752109653138       -4.31655945431231        1.61459487571340
H           -3.36127092595637       -2.11446222746085        2.36190452791752
H           -2.40012639303384        0.11432512808516        2.28254837371689
H           -2.77064276782050        2.43981130591513       -1.76212249402267
H           -1.39752442161658        3.15704142229973       -0.93793741881257
H           -1.73861060286617        0.17554940361377       -1.46583418195561
H           -0.83297325045590        1.28911523190602       -2.47871523589690
H           -0.76814627372566        1.58635313844809        1.14356845219971
H            0.78619239695253        1.73416379254188       -0.60081374712799
H            2.10323010025173       -1.40274388617865        0.71540160099634
H            2.36598230850936        0.43087929543185        0.49557251800273
H            2.97702623286884        0.34765632501759       -2.69392734261985
H            2.82592158337407       -1.40807359519012       -2.08669062312226
H            4.93197141350409        1.62686271870393       -2.07319596434560
H            7.10580986748655        1.81346542681368       -0.98933082074870
H            8.52243164841838        1.90142503035466        0.89593539420480
H            9.36042437416124        1.20805125524732       -0.51534754183038
H            9.89398812656171        0.79592131372447        1.13305458701692
H            6.84960396534041       -4.14925056722677        1.52698104549606
H            5.23197810626799       -3.41374970127650        1.42678797693419
H            6.03571437966277       -4.01974959083897       -0.04580569119243
H            4.47645730879701       -2.33104318613186       -0.51837921004629
H           -0.37869117106824       -1.75573513504834       -1.37902347135828
H           -1.18627258678255       -1.29825368096624        0.14464165007033
H            0.28460800866648       -2.29020997196231        0.17236775410345
H           -4.56592074769021        2.93631987661496       -0.31980587022815
H           -4.01148911733989        3.02006608870995        2.66814854525014
H           -5.04909675490813        1.84225454032768        1.85554160060604
H           -5.49685665985751        3.55105843255417        1.87417617814418
H           -2.69938494722656        4.72935320664119        1.27887055805722
H           -2.91955126155308        4.77174916590457       -0.47773834214680
H           -4.24663366508895        5.20983219100204        0.59050264740318
H           -0.90943593991874        2.93958287756421        3.02479505028067
