72
 energy: 35.545425689271 xtb: 6.6.1 (8d0f1dd)
N           -1.87702999186803        3.01830961432627        2.51693612601238
C           -1.72428866702327        2.21907883204517        1.56187316811034
C           -2.71619320605282        2.05982512932345        0.43903621260770
C           -3.33292260220241        0.67179905180456        0.50383594585976
C           -4.12793603288750        0.21434580685338       -0.55042579085031
C           -4.71345308640138       -1.03717139998556       -0.52318908425538
O           -5.50426573596172       -1.55443560645896       -1.50494234062151
C           -5.86063435157180       -0.73755220661584       -2.59145826437807
C           -4.50075224069524       -1.88399727091109        0.58928798316165
O           -5.09783465575047       -3.10619654796492        0.52008832698436
C           -4.95852662189228       -3.98520174163944        1.60707219283781
C           -3.72920503795045       -1.42321134746620        1.63953399297614
C           -3.15544329974955       -0.15676613160839        1.59676509559445
C           -1.91100849540836        2.22969912166056       -0.87958344432282
C           -1.07312041175133        1.01417751740614       -1.32315802592807
C            0.12659909880176        0.77070183624091       -0.47481970777013
N            0.49738361685785       -0.39107807927391        0.04625567430495
C            1.60854704313006       -0.56530699005350        0.74899847708295
C            3.57278523592630       -0.44067019132696       -2.52022633025136
C            4.70782379648672       -0.32555849020502       -1.75204267127328
C            5.50363014751464        0.85020219054929       -1.77777340058269
C            6.64052835785854        0.96242857533131       -1.01493974835346
C            7.04818178585176       -0.07927015838157       -0.18571680756499
O            8.15049681116313       -0.07318952431280        0.61265773574304
C            8.98016294940359        1.05879316379964        0.62243854746652
C            6.27521498733917       -1.27300004672998       -0.13982422964103
O            6.77353917093404       -2.23191654814832        0.69509308353591
C            6.11421119110201       -3.46822319441792        0.77174435985872
C            5.14162671996459       -1.38457312191225       -0.89924786390289
C           -0.36362587160488       -1.54960458202460       -0.12925099841058
C           -3.87439480943604        3.09836561528525        0.48588264741363
C           -4.75264703392910        2.90756456400744        1.72206228751577
C           -3.38915755693387        4.54516174209519        0.42130475816674
H           -4.29124907076660        0.85520486837760       -1.40166500035198
H           -6.38535722435557        0.16609174720912       -2.26335830870171
H           -6.53294601141197       -1.34103012717659       -3.19984878433059
H           -4.98987108846695       -0.45473193406703       -3.19323965510279
H           -5.37552324500443       -3.56206725363376        2.52715899025508
H           -5.52249024451660       -4.87576858593653        1.33381937033321
H           -3.91126758281978       -4.25934050028769        1.77619397393212
H           -3.56672126650815       -2.03739845113950        2.51132948033256
H           -2.57657001351086        0.17651779253056        2.44425105369347
H           -2.61167476218424        2.46190339784296       -1.68399368721748
H           -1.24509537276149        3.08753902806565       -0.76921371053556
H           -1.71583025107618        0.13730888370557       -1.36824006450363
H           -0.74055549995826        1.23033646345790       -2.34868722437552
H           -0.83668322805345        1.58417356315344        1.42599894945311
H            0.82529487383379        1.58457494715526       -0.36122400611050
H            1.84327253547951       -1.52296734484175        1.16137178019653
H            2.29060552062970        0.25197682402216        0.86957768953825
H            3.25216124051279        0.36213235792237       -3.15913974117325
H            2.97343860328780       -1.33243492361418       -2.50485815358990
H            5.20241487619728        1.66559570481841       -2.41839633397638
H            7.22284413446656        1.87011743992918       -1.06699946133353
H            8.43866918190349        1.95848564718650        0.93393050518442
H            9.43963728693335        1.23331946709171       -0.35681804740594
H            9.76003059719264        0.83958020761693        1.35090959023135
H            6.71760794619556       -4.07781726532960        1.44365595333409
H            5.10500774350369       -3.36507467938008        1.18577107735235
H            6.05596487548236       -3.95820181926406       -0.20628679627574
H            4.54504544599351       -2.28306502560254       -0.87603978228770
H           -0.46687990373437       -1.78466772833256       -1.18873024037178
H           -1.35270977949312       -1.35964202639668        0.29055031649837
H            0.07165990127402       -2.40860135832312        0.37613063612045
H           -4.49692478243134        2.91330909758093       -0.39828555784305
H           -4.17188936209571        3.09482210172258        2.61896597088646
H           -5.15320937904650        1.89740192342613        1.76504318308621
H           -5.58588924549534        3.60617738773180        1.69163247327159
H           -2.75411921411238        4.76353571895362        1.27368070604853
H           -2.83924499358782        4.74496698985371       -0.49473896417170
H           -4.24726267838524        5.21322237887297        0.45068570854413
H           -1.12008257355891        3.05027634077171        3.19732453236774
