72
 energy: -5.755019250620 xtb: 6.6.1 (8d0f1dd)
N           -1.52550497656792        2.80178336339116        2.26290838996954
C           -1.56539524933255        2.15405971235197        1.18841424219444
C           -2.74398224070734        2.06012546583414        0.26304624233095
C           -3.31766504702164        0.65163141059790        0.34230960764810
C           -4.28715084149508        0.24343827234298       -0.57492506690612
C           -4.83602390191966       -1.02352951477793       -0.53063349123804
O           -5.78897392713901       -1.49763682314627       -1.38090087280196
C           -6.34362400488377       -0.62191195330383       -2.32759345450325
C           -4.40807244285909       -1.93694144899591        0.45781898826996
O           -5.00332116485721       -3.16225768831239        0.41990653893955
C           -4.69340760855588       -4.08908718443421        1.42811816495686
C           -3.45145138800970       -1.53126639504489        1.36775133360386
C           -2.91305323838080       -0.25029466014207        1.30925046090092
C           -2.16557270283873        2.29419644542495       -1.15605542838829
C           -1.23647060921584        1.16504479699392       -1.63065725474111
C            0.02106131496203        1.09904520707089       -0.83857621882363
N            0.63800237482168       -0.09148148749779       -0.51499459416977
C            2.02166829665459       -0.11623360773028       -0.15579731639153
C            2.95736423136814       -0.51746641038698       -1.35731117079086
C            4.38444791529277       -0.42007645338175       -0.92032064577942
C            5.11069416435970        0.74065543457756       -1.11538329147127
C            6.41181473872952        0.85269024429097       -0.64689703278178
C            7.00371628875027       -0.19649859122615        0.03232061656509
O            8.26847224549730       -0.19748506056632        0.54086116720461
C            9.06423548101453        0.94244765427620        0.35163434766931
C            6.27205471451169       -1.38819170441972        0.23666298858974
O            6.93898969849165       -2.36998132395430        0.90431917974950
C            6.29554246713730       -3.59993434999792        1.11366698716780
C            4.97854664288919       -1.48210902441768       -0.23568582530165
C           -0.07597056602799       -1.33362102681127       -0.57515209626928
C           -3.87272024353103        3.08010640620205        0.57270466801599
C           -4.52372523210012        2.78905894959037        1.92267055753878
C           -3.39604693472051        4.53092062269543        0.53567150657367
H           -4.62239711105630        0.93680802053284       -1.32844996125653
H           -6.80360287911433        0.25036109712351       -1.85133006875251
H           -7.11138184012285       -1.19985988453346       -2.83937139213191
H           -5.59913918064818       -0.28648532241293       -3.05749020667983
H           -4.93270613456915       -3.69920941218056        2.42315168727757
H           -5.31497048552325       -4.95938829631146        1.22317611469034
H           -3.63898793281023       -4.38408487580372        1.39882841482335
H           -3.11756725151143       -2.20145903213257        2.14403491105514
H           -2.18738424073136        0.03935494847793        2.05346990470286
H           -2.98489133465200        2.39481658205309       -1.86759085822741
H           -1.60893188069477        3.23241562123260       -1.16022744048896
H           -1.78599779847830        0.22499024866088       -1.59675466201644
H           -0.97918027448393        1.36088584697011       -2.67815785889902
H           -0.69463569891114        1.63752644981777        0.71905460445456
H            0.68235014833806        1.94725039460126       -0.89141772391484
H            2.14043365244004       -0.79012271819610        0.70691832169342
H            2.30456448439488        0.89218946887550        0.17623021434173
H            2.78975567738968        0.12403556389433       -2.23079086925676
H            2.70989600137209       -1.54822449083515       -1.61713891739835
H            4.67116331059597        1.57210272638713       -1.64615518946042
H            6.95534047861397        1.76815536256934       -0.82130271754158
H            8.62951773658130        1.82589823518365        0.83065314229727
H            9.22891627516717        1.15210864945019       -0.71001049022128
H           10.01650377007696        0.70977265661235        0.82456012413484
H            7.02099378897897       -4.22278611043782        1.63369047524547
H            5.40173361626879       -3.49164618431469        1.73783773674536
H            6.02172429290611       -4.08059371648969        0.16870651034000
H            4.41212510100403       -2.38904731214791       -0.09051716153379
H           -0.24977712308995       -1.64821098612039       -1.61003815277716
H           -1.04334765422545       -1.25222507335375       -0.06851559657936
H            0.51602652540669       -2.09608584223323       -0.07435184481466
H           -4.63438347580485        2.95536353903864       -0.20692523890683
H           -3.79880017246460        2.92243020277673        2.71788554278276
H           -4.90344988836091        1.77089876636432        1.95797923262148
H           -5.35319914893324        3.47354805507973        2.08487396827507
H           -2.61718281622056        4.69127333428729        1.27422734205737
H           -3.02019271916967        4.80850655693043       -0.44575731101975
H           -4.22967953494303        5.18864009342225        0.77115700855527
H           -0.64535127121178        2.79545618388469        2.77396567420321
