72
 energy: 33.871634623060 xtb: 6.6.1 (8d0f1dd)
N           -1.69831088746217        2.91947845525528        2.39475168992988
C           -1.64195273420304        2.18497750245183        1.38215924462383
C           -2.73234335321614        2.06059246196856        0.35454690273173
C           -3.32687191288180        0.66226751955259        0.42539384673955
C           -4.20737171299922        0.22907433451800       -0.56691578631821
C           -4.77541794055019       -1.03037766999868       -0.52937736437400
O           -5.64809895852948       -1.52743408257350       -1.44955688454708
C           -6.10489663240840       -0.67780587618660       -2.47033168306380
C           -4.45315223496022       -1.91245853150683        0.52645113032446
O           -5.05160066173347       -3.13458277650219        0.46971732295599
C           -4.82667548840339       -4.03926881888336        1.52037316799155
C           -3.58584869650218       -1.48055961612655        1.51213710755352
C           -3.03137264668322       -0.20574963795534        1.46048972448276
C           -2.03009440090538        2.26391869902987       -1.01247771269660
C           -1.14393364663415        1.08811119709720       -1.46125850189639
C            0.09368890534741        0.91589207716612       -0.63324093488714
N            0.61727539058936       -0.27202650873272       -0.26958646370465
C            1.89876077542930       -0.45505391486985        0.13097747914154
C            3.22075362857437       -0.43684952153125       -1.91040832025949
C            4.50228447691184       -0.35785488192789       -1.32398282103173
C            5.28180654217500        0.79780048123471       -1.44546824130594
C            6.52066798665956        0.89969167488293       -0.84474221669181
C            7.02972355378859       -0.14087140076131       -0.08271825550336
O            8.22215533471058       -0.13231771109439        0.58628948015867
C            9.03417859770363        1.00518270767029        0.49297949942936
C            6.27725502709202       -1.33338009389533        0.03982992652995
O            6.87222184172941       -2.31144398292629        0.78477494243775
C            6.20661967790126       -3.53573304540476        0.93814306362021
C            5.04654548190648       -1.42827437696794       -0.56397408378942
C           -0.20498584992769       -1.46015606416722       -0.36004463641069
C           -3.88164551747366        3.09194479797651        0.52911895450241
C           -4.64790601378463        2.85079406004950        1.82767810028325
C           -3.39822250062638        4.53983533736215        0.47750943260801
H           -4.45484977521587        0.89684837667067       -1.37597444979866
H           -6.59681676193190        0.21187602738656       -2.06445485247384
H           -6.82680514725371       -1.26471447800077       -3.03586379193607
H           -5.29303326702870       -0.36816174649429       -3.13611776535657
H           -5.15586958918712       -3.63185582503649        2.48213606134838
H           -5.41932097227992       -4.92022291956667        1.27866523595517
H           -3.77195421049170       -4.32342216280117        1.59364540817130
H           -3.33581183332167       -2.12347396252791        2.34173097756336
H           -2.37802773947145        0.10702527989973        2.26069831624419
H           -2.79208709430061        2.43671540957742       -1.77304760373796
H           -1.41757666191510        3.16480649942394       -0.96019565084814
H           -1.74366729089816        0.18024966790691       -1.48067648475738
H           -0.84680166252483        1.29647425152011       -2.49818423192101
H           -0.75917705828698        1.58869547917514        1.10114315131210
H            0.77684034962309        1.75477629893326       -0.63112755074299
H            2.13293696329361       -1.35424591235189        0.67547892346918
H            2.35749126835471        0.47351289035081        0.46490064907614
H            2.94780318777963        0.33177220582245       -2.63490554490993
H            2.81813677088889       -1.42708649370107       -2.04643819393394
H            4.90407577665862        1.62138655661369       -2.03041544349683
H            7.09091072945222        1.80885658703982       -0.97200102385907
H            8.53385053403666        1.89368806415080        0.89021887125120
H            9.34909051057952        1.20265917314685       -0.53554998645862
H            9.91016745387805        0.78831732319522        1.10352023131751
H            6.86723275193669       -4.15721789208956        1.53811870200701
H            5.24868444900381       -3.42117598940792        1.45857857568212
H            6.03451109292511       -4.02584633641779       -0.02453699186582
H            4.47049491096052       -2.33708737081351       -0.47566982843944
H           -0.36624498457005       -1.74562670873180       -1.40283819681656
H           -1.17226086432914       -1.29347474933429        0.12244741016953
H            0.30764274621558       -2.27263792333117        0.14766186300822
H           -4.57413626669115        2.93899237338469       -0.30907743465918
H           -3.99027578984006        3.01078658077132        2.67365766147368
H           -5.03520650495457        1.83551066801716        1.86664558017053
H           -5.48363117193306        3.54417802531886        1.89646658182168
H           -2.69147750188771        4.72524567050082        1.27871206153323
H           -2.93045814283248        4.77577152863929       -0.47541922532387
H           -4.24602074673636        5.20847341017511        0.60908478250949
H           -0.88179513400398        2.92579744602399        3.00017834628854
