25
 energy: -42.163863777592 gnorm: 0.008759454269 xtb: 6.6.1 (8d0f1dd)
C            3.21807542816201        1.14851398211263        0.07448399768978
N            2.31571299220467        0.02820287327002        0.04821624671451
C            2.63295123035790       -1.26526078551186        0.06452140954387
N            1.50434630985107       -2.01477750775253        0.03932238800833
C            0.43527877003572       -1.16576959181695        0.00627647328400
C            0.94412448340992        0.12489323401541        0.01278400734064
C            0.07076156539246        1.27703139646680       -0.00225023281373
O            0.39939297010154        2.44160027306046        0.00055464655989
N           -1.27891156926068        0.86531130941016       -0.02167496351508
C           -2.23924696320940        1.99261295399912        0.06429481350680
C           -1.75817396879029       -0.37310512787576       -0.03481566530111
O           -3.53367406552643        1.54341716941521        0.01447656639271
N           -0.89708745387016       -1.40953088503566       -0.02648964520159
C           -1.41321171145382       -2.76228398165564       -0.03318737753634
H            3.73661444990889        1.19656292435783        1.03309825246879
H            3.95773059967668        1.05958215784664       -0.72061061608544
H            2.63991167930324        2.06182175287330       -0.06167275397770
H            3.62794058957743       -1.66140891194584        0.09371222427527
H           -1.96865074642130        2.70393964281693       -0.72631701956739
H           -3.99594126924439        1.86989469865235       -0.77142491406641
H           -2.04490813124088        2.47973526335371        1.03071577190588
H           -1.10095774898658       -3.29743776715910        0.86477575356901
H           -1.07069613379213       -3.29951053989967       -0.91879704296751
H           -2.49880465637038       -2.70160433982416       -0.04950503830202
H            1.47785486428516       -3.02419165157377        0.05068433597594
