25
 energy: -42.169248002660 gnorm: 0.005430841205 xtb: 6.6.1 (8d0f1dd)
C            2.83192579742552        1.18148818312179       -0.51735014696179
N            2.10682887176919       -0.01212941858488       -0.17591388908727
C            2.61661476136078       -1.23137888458283       -0.11758964309137
N            1.65283979332356       -2.09928302109094        0.21819497203323
C            0.47359422003998       -1.41183025429279        0.39465174113898
C            0.76915509567548       -0.07493517418579        0.12818559287778
C           -0.05664165668033        1.13671430696734        0.30699046166350
O            0.42188754144136        2.13835336864817        0.79101752748968
N           -1.39275547733392        1.06193004971821       -0.05686945764079
C           -2.27723675154439        2.11235680059825        0.42822418921448
C           -1.86653044510817        0.18408780126616       -0.99781443449972
O           -1.21362124376960       -0.64918294892457       -1.57086117415936
N           -0.66154402407372       -1.92095142951438        0.89365080094925
C           -1.23296430087807       -3.01368716552430        0.61584261838491
H            2.64751156561712        1.94949861412938        0.23486641569553
H            3.89496537794111        0.95993758529587       -0.57043578386641
H            2.49433845974314        1.56359832176490       -1.48180611086427
H            3.64155387336184       -1.48791493345325       -0.30482364420563
H           -1.74089956756728        2.69545735888660        1.17329851902156
H           -2.57838727128027        2.77301297327638       -0.38453597790282
H           -3.16107421365515        1.66481362223968        0.87998476937745
H           -2.10577371324603       -3.27763043402840        1.19312513106379
H           -0.94400597960415       -3.67093998671966       -0.20233681176661
H           -2.93565264161858        0.33996256943799       -1.20026774713588
H            1.77630344275952       -3.09310936284304        0.35374370017296
