25
 energy: -42.443313097311 xtb: 6.6.1 (8d0f1dd)
C            3.72197146089860        0.83472286402273        0.21252906777656
N            2.61395874289204       -0.02807797694971       -0.07093896715877
C            2.76941787263859       -1.34600776704668       -0.52870689649302
N            1.49149013991198       -1.92221498219952       -0.35750802936219
C            0.59492706273415       -1.09479803942941        0.27670575446256
C            1.30857346919827        0.18270354074400        0.42117649739557
C            0.78317459284155        1.30829346493938        0.86466524871288
O            0.40622319618908        2.36225642446931        1.22068026757124
N           -2.13271751503818        1.69272634336094       -0.22252225519788
C           -3.48725307384004        2.06209119115204       -0.44834919197970
C           -1.60700565091124        0.86790001889336       -0.92245813435307
O           -1.22188559631082        0.23361859375035       -1.81074053377484
N           -0.59537031379789       -1.20334478722939        0.67938066341092
C           -1.43444778277288       -2.35075200295744        0.59154286447989
H            3.80149008093178        1.04881407538427        1.27581073620313
H            4.58365438131745        0.29874043391900       -0.15966339272674
H            3.68012146324312        1.81219524666888       -0.28099158265183
H            3.39061185179747       -1.86063518316571        0.15808928494894
H           -3.62080384540028        2.81196000259170        0.29853486050305
H           -3.66920042609905        2.41324817035723       -1.46541216466279
H           -4.05991883138892        1.17325624423957       -0.30126520065572
H           -0.94771607992203       -3.24037496829391        0.19503815059236
H           -2.29958992833152       -2.23757017651550       -0.06836666481238
H           -1.84843485460908       -2.47049797611876        1.59158829072355
H            1.30582002012472       -2.87825217671131       -0.56290972036840
