25
 energy: 0.000000000000 xtb: 6.6.1 (8d0f1dd)
C            3.23720132972391        1.16630909158653        0.08434468864950
N            2.29877796055224        0.07527476373246        0.03981602671198
C            2.58028186251803       -1.21425391179017        0.03006175752192
N            1.43813944744728       -1.93419254010258        0.00098261751768
C            0.39035684826767       -1.05887462812143       -0.00790371763344
C            0.93510047688824        0.21347817468824        0.01709077332874
C            0.09450143016486        1.40504290868848       -0.00410946993748
O            0.49712746915594        2.54126690785742       -0.00342325656480
N           -1.25076628431515        1.06271869620815       -0.03085477937476
C           -2.21907191394203        2.15522079838987       -0.05001256521996
C           -1.81739470187490       -0.20012724136556       -0.04692818139228
O           -2.99983858926755       -0.37846413507442       -0.07008877579474
N           -0.92618577614240       -1.30210203518959       -0.03682761236648
C           -1.46982251276835       -2.64643077634382       -0.06029819901142
H            3.71247229913541        1.21471443890471        1.06488839270555
H            4.00791460421487        1.03430799217987       -0.67357688121503
H            2.69909982127087        2.09770098766290       -0.09130154035862
H            3.56654087521359       -1.63682977417947        0.04233139674524
H           -1.67107945562430        3.09322822573871       -0.02552706696334
H           -2.82428927394145        2.09428605349656       -0.95318074103337
H           -2.87644002486466        2.07745706351925        0.81450059976605
H           -1.17061985538665       -3.19584861009707        0.83242224714061
H           -1.14560246782873       -3.17511580834413       -0.95688266944647
H           -2.55549768731684       -2.55659960601237       -0.07459039105944
H            1.38130842369251       -2.94313824728853       -0.01389874052104
25
 energy: 23.381620386684 xtb: 6.6.1 (8d0f1dd)
C            3.45518810609315        1.15124476291959        0.13398395442094
N            2.42338072437026        0.13952348595817        0.00687609002234
C            2.63610052808350       -1.36276829006676       -0.07027560858980
N            1.30660119451759       -1.88730993420896       -0.08165071069501
C            0.42302870292025       -0.94969031166938        0.01187188750303
C            0.96490097466441        0.33877420818672        0.06986223475105
C            0.12372206190654        1.39174541955394        0.15813134104128
O            0.30020575345570        2.63834128218405        0.28469016247791
N           -1.37707032095146        1.01996177595849       -0.03696390667241
C           -2.37334394511081        2.04582552600133       -0.16647303936696
C           -1.85062427714450       -0.19180033160505       -0.09562560204972
O           -3.04821196390475       -0.46571152909582       -0.23372166416031
N           -0.94384617322636       -1.20638179266475        0.03385701903965
C           -1.42399900339296       -2.54404723457722        0.06613355011144
H            4.03943944405296        1.18779658010774        1.08019822182621
H            4.21883546511768        1.11034881245307       -0.66384277764053
H            2.96290503640301        2.12785249924962        0.05083011383105
H            3.53170690866438       -1.95238404077435       -0.19334827680126
H           -1.78536419596914        2.94577258256914       -0.01073410307311
H           -2.85903625019446        2.01711565398086       -1.15784650009510
H           -3.18601329645789        1.90717212225138        0.57629525843966
H           -0.96025241527868       -3.11117436377373        0.89291693152198
H           -1.22396696757728       -3.04587454641451       -0.89231679941251
H           -2.50911942386870       -2.44118938632926        0.23147869502285
H            1.06704763780006       -2.87411416145027       -0.16729255925813
25
 energy: 38.521705018508 xtb: 6.6.1 (8d0f1dd)
C            3.51443271809023        1.13839782896929        0.14778149263915
N            2.45418823650906        0.14661589951495       -0.00847675861638
C            2.64383547914329       -1.39995929885317       -0.09383392815010
N            1.28548884040402       -1.87678294570428       -0.11667282581727
C            0.43264196691848       -0.92181610326740        0.01851989439217
C            0.97813170904906        0.36712827182116        0.07784618551350
C            0.12671897020369        1.40429040927742        0.21061461270189
O            0.24746682763708        2.64879062759344        0.36483689972223
N           -1.41843364394290        1.02555689556085       -0.03623826979165
C           -2.42288439282195        2.03026527193975       -0.20100124327287
C           -1.85955124798214       -0.19044628867324       -0.11731288648320
O           -3.04931378159072       -0.49675922636004       -0.28675703816620
N           -0.93830914126972       -1.18155759255023        0.06042189883134
C           -1.40543440695890       -2.51890394238728        0.10884705628755
H            4.12027052203576        1.16219871059920        1.08502484984353
H            4.27835277264312        1.12375529589462       -0.65455407173569
H            3.04293361312765        2.13017076367885        0.09420879827024
H            3.50913532786505       -2.02771895254018       -0.25981914792099
H           -1.84540289020866        2.92711754170339       -0.00762659774806
H           -2.87247712128043        2.00160137116331       -1.21054252370132
H           -3.26816892468761        1.86357282264074        0.50256986570230
H           -0.90271251369148       -3.08828403735586        0.91105001300814
H           -1.25345795572220       -3.01293619990971       -0.86440056317660
H           -2.48377707688332       -2.41331328251067        0.32306414602979
H            0.99854041838605       -2.85195505150086       -0.22051594616694
25
 energy: 46.120309909641 xtb: 6.6.1 (8d0f1dd)
C            3.54819247563567        1.12574302577313        0.15285460753848
N            2.48063176680765        0.12528469779775       -0.03974655456215
C            2.64247776853591       -1.44800845051282       -0.08237649302072
N            1.30448229843326       -1.88352165771203       -0.15696385279690
C            0.44377006343919       -0.90821799331922        0.03773722530618
C            1.00564773344519        0.37427887435004        0.06931583634240
C            0.13221253887905        1.45923709665323        0.26351067956527
O            0.18128375003042        2.61615499529317        0.41616217507607
N           -1.48055960525124        1.07073637184723       -0.03036012146221
C           -2.46105298351112        2.05660903625267       -0.22857300930187
C           -1.87448097673394       -0.19762151443648       -0.15081079103894
O           -3.03086101102267       -0.54962157842728       -0.33067759411101
N           -0.91131046822910       -1.17110831346853        0.10559752365659
C           -1.37764813222137       -2.51033137509039        0.14713847792114
H            4.15966225500421        1.15016551765681        1.07856177333768
H            4.31525277576467        1.15679689532075       -0.64243150886379
H            3.08822918246319        2.12360289914374        0.12750412023931
H            3.45559134139620       -2.09363305959514       -0.30323835147797
H           -1.90010998221918        2.93586505513143        0.00186874084474
H           -2.87144326462769        2.00968603079248       -1.23384935597514
H           -3.29885211819550        1.84131416824800        0.42825881818060
H           -0.86580628797332       -3.08148623528702        0.90414919281620
H           -1.30092272783041       -2.98610783464706       -0.83864755106886
H           -2.43207580664855       -2.39895022232734        0.39246591346848
H            0.95990371960204       -2.82783764069308       -0.26041598841903
25
 energy: 85.810446101655 xtb: 6.6.1 (8d0f1dd)
C            3.67792568174896        0.82940534462991        0.27332514379362
N            2.45483839676402        0.15887983811900       -0.13733401351350
C            2.57955571682366       -1.14938226528936       -0.50053690062483
N            1.38843010864980       -1.79228866761241       -0.36078039634394
C            0.48946587331902       -0.87985449668940        0.11167773874564
C            1.08277218287243        0.36229961290704        0.26927758202540
C            0.20468804138670        1.49667522692945        0.57178118305362
O            0.42594723994863        2.45084799903571        1.26741331912792
N           -1.55295603261419        1.29686375274702        0.01970936311930
C           -2.93243985646027        1.93990239183491       -0.42504259751887
C           -1.51520773408075        0.05794383853578       -0.53679607930448
O           -2.02734321514184       -0.27781236436589       -1.53711950610319
N           -0.83152932218544       -1.02263300713955        0.32073534114775
C           -1.42791655417204       -2.30810669185227        0.57209467170769
H            3.80233882996040        0.85797536541579        1.38191324367358
H            4.51557803513572        0.21932517618665       -0.12092065572088
H            3.71966745457739        1.86059305686373       -0.14926852311855
H            3.42778927356328       -1.65648110003344       -0.96534792454281
H           -3.30426243938176        2.72048283612161        0.25453555415557
H           -3.00898245992935        2.34939623130821       -1.44194113537079
H           -3.75028557363978        1.17757587883461       -0.41304159125459
H           -0.71770683347352       -3.16498211819734        0.39748141572037
H           -2.29488036960171       -2.40642171539734       -0.06043598603070
H           -1.72587486326438       -2.37766390759690        1.64329448958360
H            1.23260272416808       -2.75351142655150       -0.60763982421251
25
 energy: 97.287292254736 xtb: 6.6.1 (8d0f1dd)
C            3.69434062968115        0.84252277397595        0.25946852110365
N            2.48010223877135        0.11647379021782       -0.09980886114922
C            2.59435167012193       -1.18052423992272       -0.49085414696104
N            1.39940530738705       -1.82482051668663       -0.33343318405439
C            0.49464543725746       -0.91499928377573        0.14768898745645
C            1.10262468749516        0.32585285070124        0.30143244036621
C            0.26611614320310        1.47869280313166        0.59324009664705
O            0.48569313496826        2.43628523135469        1.27617407073018
N           -1.61154869913245        1.31327114380830        0.05115676875791
C           -3.00804634506790        1.94199120715996       -0.42275121029078
C           -1.48077475414654        0.11284154475908       -0.57834884289713
O           -1.86423920364057       -0.18719478687400       -1.65471368850973
N           -0.82810328594688       -1.02126182897086        0.32200705602130
C           -1.43479641341999       -2.30261898868275        0.57318335737516
H            3.78994249591492        0.95094771713506        1.34227557982788
H            4.52976705514324        0.20102779142879       -0.08197599852536
H            3.74905975479721        1.84144989521592       -0.24510676661516
H            3.40859991322070       -1.68345330638991       -0.92023646098250
H           -3.40932861641774        2.69953344559030        0.26038065085008
H           -3.11621920348755        2.36050656209254       -1.43427905586822
H           -3.80489153586256        1.18523980807323       -0.39588716758254
H           -0.78158134906739       -3.17613350397399        0.32993055339944
H           -2.31245161438084       -2.35682095379286       -0.03378756221337
H           -1.67951844493909       -2.40657878601550        1.64267509269061
H            1.24906530252108       -2.76320158081561       -0.58139631738208
25
 energy: 134.208172319500 xtb: 6.6.1 (8d0f1dd)
C            3.73438967902875        0.84298176918056        0.25712747438907
N            2.52858063338273        0.05956133197804       -0.02858227909803
C            2.61578739321630       -1.22245797657338       -0.52986059661340
N            1.40040112137734       -1.85005034757816       -0.34711201481426
C            0.48649089297302       -0.97552246112641        0.18884518516709
C            1.11992256923961        0.28233873403114        0.34494858788502
C            0.36768471435300        1.43994184603468        0.61206537036978
O            0.50202412670562        2.39443983437116        1.30665173354912
N           -1.72636379502677        1.30290716213330        0.04314349301560
C           -3.10216576058675        1.95288358678164       -0.46084624973788
C           -1.51855029910289        0.19952541545302       -0.53353186563477
O           -1.69028502635790       -0.07166728432646       -1.71659655864848
N           -0.82197041280833       -1.01085864647718        0.37236789197837
C           -1.40856958522404       -2.31584083845001        0.61406224049434
H            3.79325226981776        0.97834852820840        1.23198413226966
H            4.54842438513394        0.24490599496687       -0.08312537427010
H            3.79384165798079        1.77780817690482       -0.24526597855471
H            3.35281356858851       -1.65129229202929       -0.86221959203382
H           -3.49054832616969        2.69406216920457        0.20649190791033
H           -3.22904254864055        2.35012095884117       -1.47888381816543
H           -3.85077302722002        1.23092352833366       -0.38229114605463
H           -0.84792643628305       -3.13893883106854        0.32478213377348
H           -2.24804942700412       -2.35114690377999       -0.02281496277095
H           -1.65318211969750       -2.43699893724454        1.60569333382440
H            1.25602805729725       -2.73694572902508       -0.58999913603540
25
 energy: 142.968440369534 xtb: 6.6.1 (8d0f1dd)
C            3.75891722141646        0.86882036263859        0.23213382972650
N            2.56351555505024        0.00883804833328        0.00534499597978
C            2.63417425504954       -1.25890356641083       -0.49741181713371
N            1.41981825013470       -1.89603782280626       -0.30182919838735
C            0.50585682874374       -1.01771449023338        0.23166504604980
C            1.14562547641788        0.23720473222693        0.37406682826608
C            0.42393660425537        1.40429958384457        0.67227660982958
O            0.59535623213619        2.38313187497199        1.32233793382707
N           -1.77027496712306        1.35337172837435        0.08850469648997
C           -3.19410733214321        1.95798969569076       -0.44995688002086
C           -1.43369873842497        0.26629473913582       -0.64204773856072
O           -1.59217410049034        0.02838703916444       -1.84256969285558
N           -0.81134250298121       -1.00214366676518        0.35718018727539
C           -1.43045193392569       -2.29133087014590        0.59290307476957
H            3.77319646735618        1.15712685378041        1.22763277951945
H            4.58783229053572        0.17369249926703       -0.00151628163783
H            3.85743448584917        1.77712479669355       -0.44621039916345
H            3.40422701429871       -1.73809615420587       -0.75998836149992
H           -3.65757755250643        2.66798582625647        0.22285146944889
H           -3.40506849162666        2.36179662625828       -1.46255869944399
H           -3.92522222403133        1.22614178108449       -0.33502183622313
H           -0.93072616739579       -3.18251626625849        0.17317308901275
H           -2.30767176582437       -2.24569456051551       -0.00784061812924
H           -1.57948585774381       -2.48451194213944        1.63299387978213
H            1.28012525794606       -2.76622805949608       -0.55907898472684
25
 energy: 154.111907071228 xtb: 6.6.1 (8d0f1dd)
C            3.78187666270142        0.87504176009227        0.22565096403297
N            2.59955561516514       -0.00081184510394        0.00433951244827
C            2.63789908501506       -1.25654878855981       -0.54196084180400
N            1.42996487377316       -1.90957185756397       -0.30538281592109
C            0.52070253810815       -1.04484392238695        0.24021692379373
C            1.15182144178187        0.22512881115913        0.36410149923517
C            0.44282992395948        1.35023321244849        0.73825981845994
O            0.61787218265640        2.37440031242715        1.33608950364319
N           -1.76128179492288        1.38495613779106        0.02373619023238
C           -3.23239319690422        1.97076087987671       -0.45754223818754
C           -1.39169580064126        0.32791028220381       -0.69937679777134
O           -1.72647598343575        0.07232485293159       -1.77617127202477
N           -0.78759937604155       -0.98902482126725        0.36488932227224
C           -1.42482833199281       -2.28286881162193        0.58735883866365
H            3.75650455680744        1.21549177937967        1.18752118697580
H            4.61388321935353        0.17674358668137        0.02958103548126
H            3.89899835539872        1.74761344619044       -0.47844074731073
H            3.49642255584886       -1.81046286098851       -0.62387798720350
H           -3.73132347963351        2.66582475571889        0.21841195092855
H           -3.50376141856664        2.36325113233084       -1.46962379877288
H           -3.94641333586858        1.21974488256714       -0.29913781795771
H           -0.97468865464768       -3.16176543799612        0.14684415437881
H           -2.27774144213835       -2.22738665649128       -0.03221610442532
H           -1.56908449983688       -2.50942095718583        1.61091297479410
H            1.29117060903399       -2.78769108388896       -0.56714954176681
25
 energy: 162.169413134560 xtb: 6.6.1 (8d0f1dd)
C            3.80740031152522        0.86870399625033        0.21330752239925
N            2.63909478337760       -0.03807323974239        0.03270159972943
C            2.66017607376355       -1.28228678414007       -0.56735686247100
N            1.44869890484843       -1.93421937845817       -0.28655449266857
C            0.53230980257072       -1.07622825661286        0.26419690701423
C            1.17356485130302        0.20440747835525        0.38161245489073
C            0.51012082067872        1.32282396904616        0.77878201922059
O            0.65809919676223        2.35663672288921        1.35526330744464
N           -1.81710418872560        1.40918208469349        0.01311684281574
C           -3.31512784834734        1.97560876942178       -0.45942920267409
C           -1.38368921002660        0.41134747963242       -0.70410957690520
O           -1.64681754438968        0.14393210175119       -1.84676639357280
N           -0.76586441034002       -0.98869859130861        0.38425394380976
C           -1.41682727944810       -2.28976163635743        0.58862726941995
H            3.73761257208322        1.31301830363134        1.14746618624499
H            4.63387777242715        0.16716523452502        0.06218528785413
H            3.91422021189294        1.69422584735866       -0.54969078530232
H            3.48755494991869       -1.82155694660049       -0.55295220322447
H           -3.80642004117252        2.66607267113950        0.21209598333956
H           -3.59169834036518        2.36135406833462       -1.46830753065340
H           -4.00477511810686        1.21281828960851       -0.28681015370524
H           -1.02772731906737       -3.15499807625500        0.09899147735127
H           -2.28392390317020       -2.19243937624794       -0.02202754570206
H           -1.53917681548449       -2.53203184459742        1.58932899855699
H            1.30863607246560       -2.80797409757315       -0.55089114101780
25
 energy: 204.274763860838 xtb: 6.6.1 (8d0f1dd)
C            3.93313631181745        0.77925616665356        0.15771914889800
N            2.79789252050235       -0.11030665717542       -0.09345617007325
C            3.12454580296345       -1.53977142857184       -0.81679146607636
N            1.62710914985628       -2.10038111164613       -0.34712035843513
C            0.72492510450893       -1.24879823009026        0.36325172758176
C            1.41246676806838        0.06543635063731        0.46657814885133
C            0.90049726353156        1.15973775584533        1.02167726853922
O            0.78584956824677        2.18830897231437        1.51497354475392
N           -2.46671316261401        1.85627952661953       -0.19730930515284
C           -3.84407486480911        2.11489222520014       -0.62725687251022
C           -1.66460082372049        1.27430526591297       -0.88195561112035
O           -1.25684147816774        0.64668436070248       -1.79268785572245
N           -0.35076737378873       -1.41955163786929        0.93463908397788
C           -1.25990755569026       -2.47679164140688        0.67245531966775
H            3.94860877641895        1.16008719638067        1.11539820929830
H            4.76097971250095        0.16567087675379       -0.14570525097017
H            3.85181440190311        1.64392291632570       -0.55742808863586
H            3.07297334898666       -1.70494042782318        0.13365092625850
H           -4.20533832823134        2.89327759462635       -0.03833436786429
H           -4.14708466115723        2.34025342988011       -1.65390528611106
H           -4.49681336973966        1.34407863682394       -0.30162911877676
H           -0.80594237426332       -3.41741971108259        0.40254410472830
H           -1.83744100341469       -2.25037817084087       -0.23815643400481
H           -1.87281111189317       -2.59627174059411        1.51731458880429
H            1.17975168315803       -2.77855172883170       -0.78143197371134
25
 energy: 217.088879986992 xtb: 6.6.1 (8d0f1dd)
C            3.94890958720821        0.75676097824275        0.13058767331870
N            2.83586478216964       -0.14566976374644       -0.08261976086292
C            3.17089539600218       -1.57257700143374       -0.86433831711124
N            1.65254838365609       -2.13615301242849       -0.34107894200882
C            0.77825963095862       -1.28058723826016        0.37386203717900
C            1.45354471862604        0.03715438555513        0.49638546632094
C            0.96602700171064        1.13042098242455        1.04956612548924
O            0.81194535678625        2.20462884801866        1.53123611265158
N           -2.50257904443652        1.87741161028139       -0.25523486249941
C           -3.94136165287659        2.11385716780983       -0.64691957069679
C           -1.65781781342535        1.34466059958211       -0.92988685590953
O           -1.23496878364202        0.77495715852996       -1.74296642849271
N           -0.30715721096012       -1.45518798513493        0.98227280983530
C           -1.24077375244210       -2.49054530941930        0.68407148251856
H            3.98507265453663        1.15883622160926        1.14012045479989
H            4.79357961148210        0.17319044734819       -0.17868008689103
H            3.84719896879800        1.63212920038860       -0.53251150003868
H            3.01717503518359       -1.67776263743085        0.19651029696226
H           -4.28520976752252        2.92167929958588       -0.04993332804891
H           -4.24782419801514        2.34606987949628       -1.68159368192027
H           -4.60810132287042        1.35473447078009       -0.32496967651752
H           -0.82321497075308       -3.42930210885498        0.43880174046924
H           -1.77428029011185       -2.25187608202531       -0.24412152992347
H           -1.89395252976471       -2.60580641841764        1.48230035222769
H            1.16843451467555       -2.79199490375686       -0.80382609865676
25
 energy: 221.687034664749 xtb: 6.6.1 (8d0f1dd)
C            3.92962372206975        0.76613464175804        0.12958549813578
N            2.85635921302609       -0.17699464202230       -0.03594109386123
C            3.18157810099651       -1.58739150552274       -0.88760548125037
N            1.64807846701761       -2.16037717230066       -0.30102137330371
C            0.81413425234765       -1.28562663322413        0.39390625443813
C            1.45034956636005        0.03479055801559        0.48890678152465
C            0.95592534274791        1.15416387063823        1.01630264246757
O            0.86560103412269        2.18569006076138        1.57243176438381
N           -2.60438256246546        1.81587210918282       -0.26080718283718
C           -4.02834216813974        2.11557102572319       -0.67652849537335
C           -1.68900760976919        1.31017992558466       -0.90386336098781
O           -0.97748553682127        0.76864940770570       -1.71283504361941
N           -0.30337606834344       -1.42426958145461        0.98879447438294
C           -1.21449292910005       -2.46999018210892        0.70052557025023
H            4.03762507348794        1.06052772225999        1.11848015624040
H            4.79316626360736        0.18512691547720       -0.19782581640205
H            3.84037868971413        1.66158673187961       -0.48736679988906
H            2.96693137996296       -1.63753812325230        0.11069803928302
H           -4.29648174416462        2.94855683575898       -0.05281907730516
H           -4.27756792637486        2.37003882097911       -1.72072967907565
H           -4.69289557212698        1.38386733382172       -0.34359662362589
H           -0.86393369473228       -3.45894753180975        0.44515294484977
H           -1.73534751802294       -2.21919681451188       -0.23296878482664
H           -1.90877875069336       -2.56185764287886        1.44777135107636
H            1.16455528026668       -2.78953734171612       -0.77161275248078
25
 energy: 167.363985515931 xtb: 6.6.1 (8d0f1dd)
C            3.93550607963246        0.73656426112725        0.11367693712607
N            2.85048928063724       -0.18651716266186       -0.01849211529200
C            3.05761804288557       -1.51633523329976       -0.90971115157193
N            1.65459734015653       -2.12865532290607       -0.28829084698272
C            0.81188283293975       -1.25234951553678        0.38620375883746
C            1.51278403861365        0.03063093905395        0.53168931939920
C            1.03424274401667        1.15732188135659        1.03403563157135
O            0.88804448764997        2.17987390027210        1.58660485012982
N           -2.71017459959109        1.76152827981558       -0.34395166188081
C           -4.08219118563061        2.11591526574898       -0.70567727062657
C           -1.73150903685401        1.34422133157483       -0.88418489903085
O           -0.88405489200212        0.86123276178253       -1.52906416177543
N           -0.32477045935955       -1.39496512724758        0.94349922658509
C           -1.22173474749625       -2.46517012156441        0.67204650649084
H            4.06742434696126        1.04259970606671        1.13099545153220
H            4.80989747114098        0.18179485403998       -0.22699024663815
H            3.81379439800963        1.63151504173703       -0.49864873515386
H            3.11355989535933       -1.72826502287619        0.08322122998997
H           -4.29188293046142        2.97075144929860       -0.07485669893370
H           -4.30636355738489        2.37041725723325       -1.74514537480235
H           -4.75949023110645        1.36018554273985       -0.36870097413745
H           -0.81214256984986       -3.45629970583165        0.47588358291087
H           -1.76635154449103       -2.23143019119122       -0.25074579905367
H           -1.92731633603693       -2.54486963837983        1.46429612295332
H            1.18035543723434       -2.85066664160844       -0.75065876945227
25
 energy: 109.576606344566 xtb: 6.6.1 (8d0f1dd)
C            3.93108571428650        0.70417282602247        0.09374917879468
N            2.81986262264528       -0.18929342355622       -0.01514909966220
C            2.90232466901872       -1.43862275404003       -0.86149251696884
N            1.64572143581710       -2.06463360739016       -0.30483186130661
C            0.80316226758769       -1.21719983309167        0.38806057838859
C            1.57016469860290        0.03044779198826        0.55338509801350
C            1.11491666355596        1.16157186300104        1.05822208387557
O            0.89633437972811        2.17666076762958        1.59890254903548
N           -2.81112472088295        1.69766613090173       -0.45141676999954
C           -4.12177207419831        2.12131848949417       -0.72111945406840
C           -1.77501282012010        1.36707862693556       -0.88182767222994
O           -0.78839350074128        0.95437001382499       -1.34207793076202
N           -0.34699751979491       -1.37039923550849        0.90617512543184
C           -1.22931635786851       -2.46230466328916        0.64367064783651
H            4.09163450145311        1.02412352800963        1.13799907213586
H            4.82018856897059        0.17734483408043       -0.25040541265075
H            3.79183611630897        1.60523204078895       -0.50611189411856
H            3.33776765280733       -1.87172567265364        0.02798354665174
H           -4.28756808626799        2.99098869530855       -0.09340432971256
H           -4.33854808187459        2.36870785334277       -1.75987900820999
H           -4.82051937828917        1.34855762238352       -0.38663518643326
H           -0.76909434045628       -3.44817739861150        0.50214170035239
H           -1.79342759620202       -2.24548956380515       -0.26341811874261
H           -1.94198575142481       -2.52927599601880        1.47837544389323
H            1.21097524231191       -2.90209014700382       -0.72386185734961
25
 energy: 80.684763953962 xtb: 6.6.1 (8d0f1dd)
C            3.93360606409704        0.67449589663140        0.07607335008349
N            2.79870410081700       -0.19301414463158       -0.02636104632496
C            2.81856547842885       -1.41569378508392       -0.73729083160531
N            1.62714964389357       -2.01178839085865       -0.31725373591543
C            0.78870943835075       -1.18745716294686        0.39332726587093
C            1.61641334668164        0.02995585603196        0.57566911772043
C            1.18969578308573        1.17043022133457        1.08634799020314
O            0.90483688751127        2.17598181016489        1.61555801647828
N           -2.90494680750215        1.62370483650340       -0.55340779154628
C           -4.16634566066699        2.12185967059331       -0.73833576884831
C           -1.79919685158056        1.39543995256874       -0.87523410624776
O           -0.70369961144147        1.05559952529945       -1.14265810098796
N           -0.37254845819994       -1.34344768523290        0.87188406365945
C           -1.23585129609089       -2.45876501388402        0.62110142218749
H            4.11598966166640        1.00393630720350        1.13943474677517
H            4.83216077665183        0.17166212105429       -0.27558502660652
H            3.77134373928063        1.57995704215387       -0.51312562275724
H            3.50768564367331       -1.96952270000561       -0.11593639581434
H           -4.28488313379840        3.00346073829228       -0.11215722236438
H           -4.38133404167480        2.37162205841199       -1.77888842395210
H           -4.88760689854833        1.34264839144835       -0.40689869805971
H           -0.73165991155565       -3.43502557426497        0.52724144160559
H           -1.81685679416969       -2.26309539871564       -0.27492010217741
H           -1.95256803973823       -2.51487053363802        1.48619546046059
H            1.24485124580230       -2.93904524968727       -0.69774608964231
25
 energy: 66.168096569871 xtb: 6.6.1 (8d0f1dd)
C            3.96041074485955        0.64509477091419        0.09891482977025
N            2.84818307594275       -0.24940495451938        0.09163644069240
C            2.77126785460112       -1.42896894906974       -0.54609716555939
N            1.59384585913792       -2.04483787648336       -0.22930781368750
C            0.76351266469839       -1.16085251665461        0.45899240769328
C            1.58888361872556        0.03022253556700        0.65949721730957
C            1.25502055125632        1.20064989441772        1.16147347848417
O            0.91999865276719        2.21354137850391        1.65692140132526
N           -3.00825801423181        1.44115367822176       -0.80063924967237
C           -4.25061581078731        2.09648557749555       -0.81343302206329
C           -1.81157087583779        1.45701307680368       -0.82980684698312
O           -0.63406190378276        1.29217872817453       -0.72632950205787
N           -0.43843113442808       -1.28533148519849        0.84074193819823
C           -1.25145372515862       -2.44142402932946        0.62634916369064
H            4.17800589108843        0.97335416818931        1.11689069578848
H            4.83936143560152        0.15004013405497       -0.31198612137949
H            3.73250325708630        1.52651798263896       -0.50909989991985
H            3.72995208891575       -2.03543098874858       -0.86308712044000
H           -4.24521392253587        2.97695639307195       -0.16403290493741
H           -4.49992494540181        2.39334403760244       -1.83163688602276
H           -4.98546041903306        1.38168605340919       -0.44864482889750
H           -0.70471500085284       -3.38451115391889        0.56280098166075
H           -1.83996762668983       -2.31103370181949       -0.28592893651772
H           -1.94975553718453       -2.49094059126291        1.46413797776494
H            1.35069752621711       -2.95647337331858       -0.55129232204506
25
 energy: 60.644517913533 xtb: 6.6.1 (8d0f1dd)
C            3.96264566310079        0.64758322106469        0.08916302702322
N            2.85462698344303       -0.24928549408059        0.07792087598425
C            2.80692885705136       -1.47551452547345       -0.47402524707192
N            1.59243719043778       -2.03473814814365       -0.25026546171095
C            0.75825665227214       -1.15191601933891        0.43164452320003
C            1.60023412275948        0.02994825727173        0.64788700834556
C            1.26502288908147        1.19823071039766        1.15817191143468
O            0.94510665761277        2.20962074079714        1.66600361071283
N           -2.99932627350977        1.45256760883313       -0.77705299941541
C           -4.25108000602517        2.09784835096988       -0.80810929879717
C           -1.81867048814257        1.43551337027364       -0.79828469554955
O           -0.66672338371269        1.30370036552070       -0.75470098577974
N           -0.43903678128653       -1.27853048890295        0.82393389035827
C           -1.25010483698653       -2.43966377094000        0.61835191310259
H            4.17379096411043        0.97252088733064        1.11102165572358
H            4.84432376834743        0.15317725011764       -0.31671945641390
H            3.73551999466835        1.53087141380580       -0.51527006634332
H            3.69258644628361       -2.01327867527549       -0.81615231340096
H           -4.26213374585237        2.98203290639628       -0.16908268239504
H           -4.50206443984044        2.38809355612693       -1.83102304896362
H           -4.99755619707594        1.38483125329803       -0.45071917299830
H           -0.69516808540748       -3.38687473341337        0.56211882747879
H           -1.84303826709740       -2.31772899114988       -0.29406227473276
H           -1.94524932395537       -2.48946250491898        1.46129835341904
H            1.35088594469706       -2.96051775182497       -0.56501398101557
25
 energy: 60.008479276359 xtb: 6.6.1 (8d0f1dd)
C            3.96080088457243        0.64807872649325        0.09502123622728
N            2.85701449162249       -0.25560002496547        0.09586820793679
C            2.83359553178530       -1.49827508895931       -0.43123983950262
N            1.60103973787498       -2.04216680689019       -0.23622583000727
C            0.76066407387387       -1.15582345841647        0.43591671378167
C            1.59458082616567        0.03098664116504        0.64333497595928
C            1.24284820692744        1.19409888220160        1.15589676909029
O            0.93929457007576        2.21635606266890        1.66108914411502
N           -2.99137064457781        1.45703620302430       -0.78223783637832
C           -4.24558296421150        2.09706137976780       -0.80454537119443
C           -1.80831678213855        1.46061198333914       -0.77634308333663
O           -0.66481848745378        1.26767222738171       -0.79565331298171
N           -0.43678130645856       -1.28355823704774        0.83531183967996
C           -1.24969740283712       -2.44033012756534        0.62350239828250
H            4.17409133346821        0.97674040867847        1.11526589419614
H            4.84172916620804        0.15328128642241       -0.31200323321426
H            3.73288701621049        1.52915508884966       -0.51133883642398
H            3.65758625269899       -1.96685653584213       -0.91399780592611
H           -4.25736373436439        2.97995543406251       -0.16192902765405
H           -4.49764740906404        2.38900503046897       -1.82706307016028
H           -4.98831274826089        1.38218330060427       -0.44760595241852
H           -0.70151103529900       -3.38980925538752        0.55824504558265
H           -1.84009094562431       -2.31219657584760       -0.28945583253814
H           -1.94618054390217       -2.49335882091440        1.46247303656101
H            1.34375621768187       -2.95521893455017       -0.56525231748163
