25
 energy: 0.000000000000 xtb: 6.6.1 (8d0f1dd)
C            3.23720132972391        1.16630909158653        0.08434468864950
N            2.29877796055224        0.07527476373246        0.03981602671198
C            2.58028186251803       -1.21425391179017        0.03006175752192
N            1.43813944744728       -1.93419254010258        0.00098261751768
C            0.39035684826767       -1.05887462812143       -0.00790371763344
C            0.93510047688824        0.21347817468824        0.01709077332874
C            0.09450143016486        1.40504290868848       -0.00410946993748
O            0.49712746915594        2.54126690785742       -0.00342325656480
N           -1.25076628431515        1.06271869620815       -0.03085477937476
C           -2.21907191394203        2.15522079838987       -0.05001256521996
C           -1.81739470187490       -0.20012724136556       -0.04692818139228
O           -2.99983858926755       -0.37846413507442       -0.07008877579474
N           -0.92618577614240       -1.30210203518959       -0.03682761236648
C           -1.46982251276835       -2.64643077634382       -0.06029819901142
H            3.71247229913541        1.21471443890471        1.06488839270555
H            4.00791460421487        1.03430799217987       -0.67357688121503
H            2.69909982127087        2.09770098766290       -0.09130154035862
H            3.56654087521359       -1.63682977417947        0.04233139674524
H           -1.67107945562430        3.09322822573871       -0.02552706696334
H           -2.82428927394145        2.09428605349656       -0.95318074103337
H           -2.87644002486466        2.07745706351925        0.81450059976605
H           -1.17061985538665       -3.19584861009707        0.83242224714061
H           -1.14560246782873       -3.17511580834413       -0.95688266944647
H           -2.55549768731684       -2.55659960601237       -0.07459039105944
H            1.38130842369251       -2.94313824728853       -0.01389874052104
25
 energy: -4.317286552053 xtb: 6.6.1 (8d0f1dd)
C            3.30931368139162        1.15927306107217        0.09902533545770
N            2.34507285227048        0.09994469268292        0.01432736831630
C            2.60251610929008       -1.27411060060893       -0.02715309765990
N            1.38847948305950       -1.92102601228880       -0.03677828991512
C            0.39858008985238       -1.01687152365705        0.00884867776829
C            0.94132676718298        0.26093926108055        0.04590120545034
C            0.09166244905079        1.39248861200809        0.06689192813692
O            0.41318768395621        2.58070982970956        0.10576914311486
N           -1.32313633522547        1.02630307198647       -0.03821577160405
C           -2.29944593549004        2.09242688410951       -0.11139734770805
C           -1.85012989353228       -0.21451588687810       -0.13746966221535
O           -3.02759540853142       -0.46878040452293       -0.29958356367484
N           -0.93797274802665       -1.26360676761460        0.01471976946712
C           -1.45466430229078       -2.60567628479462        0.00643699105765
H            3.81517238532088        1.18784244852415        1.07246272683243
H            4.08714838827837        1.06233519539775       -0.66829720694103
H            2.78720272454791        2.10481457146829       -0.03861064836804
H            3.53713370728105       -1.78573503388641       -0.10325067151724
H           -1.75101597307759        3.01608918529247       -0.01878839237625
H           -2.83751923309485        2.04976425161008       -1.06049776478409
H           -3.01096421402769        2.00017366211501        0.70994008454119
H           -1.06683343423930       -3.16376388095735        0.85953359407462
H           -1.20586589405932       -3.09924469429422       -0.92690047561403
H           -2.53814918119450       -2.51447127140140        0.07548433362947
H            1.28498924342970       -2.92160636619491       -0.05650202789015
25
 energy: 2.510016190900 xtb: 6.6.1 (8d0f1dd)
C            3.37968603514925        1.14174641019084        0.11064626796103
N            2.38832235170551        0.09611670697734       -0.00434728627663
C            2.60607384773609       -1.30963410872213       -0.05021099208533
N            1.36320692919545       -1.90192984180240       -0.07058304537366
C            0.41146044936409       -0.96948587889351        0.02505338260309
C            0.97024013572349        0.30126698164313        0.07012139166967
C            0.08609354785555        1.42345567440622        0.13374315510280
O            0.36788973457486        2.61527830902269        0.21406417453755
N           -1.34442532667086        1.05836198296390       -0.03431474661384
C           -2.37331719203304        2.06679437433818       -0.16927050643620
C           -1.81884803497598       -0.19225575062748       -0.21276264817515
O           -2.95969974747955       -0.48060815154616       -0.50857856250445
N           -0.91993364181319       -1.21663779170943        0.07524145913454
C           -1.44026831388758       -2.55736350238285        0.08008410914881
H            3.90880865089062        1.15271681380993        1.07573826326764
H            4.16658144710461        1.07682812573638       -0.65763284810278
H            2.87854057158477        2.10464876477079        0.01008119205091
H            3.48272632951119       -1.90164226939450       -0.25599263367907
H           -1.90099414015521        3.01964239614054       -0.00857200567836
H           -2.84537480462826        2.01011204474937       -1.15697617859961
H           -3.13365208429421        1.91903236746543        0.60133984049074
H           -0.97283429806232       -3.12357820323521        0.88607891640552
H           -1.29604628927503       -3.03335066314298       -0.87898722876960
H           -2.51428059752510       -2.46462375032147        0.23510593773848
H            1.20739716321453       -2.89648218645772       -0.09704605390359
25
 energy: 10.458236685875 xtb: 6.6.1 (8d0f1dd)
C            3.44434362837015        1.13841402258114        0.12434432845859
N            2.41918815914201        0.12205859898734       -0.03764729912030
C            2.60426186979879       -1.28756857598981       -0.12100784760298
N            1.35269527621220       -1.86613243145578       -0.11771152996651
C            0.42974169723925       -0.91870735536706        0.05090975528797
C            0.99312956245309        0.35106808090862        0.08552195002370
C            0.08664987138152        1.47320122681359        0.19098640742154
O            0.34029126837021        2.66219500053677        0.32383068603831
N           -1.35532331252028        1.12106750303185       -0.02878815646467
C           -2.43723614957255        2.07575649606113       -0.21664084653789
C           -1.75993964047512       -0.14197050753367       -0.28791400407152
O           -2.83649541180268       -0.46103885652498       -0.74197297850771
N           -0.89983908507001       -1.15692805022639        0.14683026123702
C           -1.42419773785182       -2.49999557026080        0.14939523203073
H            3.99476615427085        1.11427577665522        1.08108987546288
H            4.23487780728116        1.10177674531605       -0.64372132414402
H            2.96966144571735        2.11622552575271        0.06390645935818
H            3.44257275818423       -1.89479588389551       -0.42463561131758
H           -2.05205007852994        3.04306273212641        0.03283761287097
H           -2.83452380461555        2.05617770852337       -1.24112301888240
H           -3.24500711723097        1.84437637988612        0.48507191755594
H           -0.88228607924050       -3.08856984897018        0.89039775712380
H           -1.39697044112070       -2.96011136125627       -0.82574432085912
H           -2.47833876638557       -2.41718618391972        0.39806578446563
H            1.14966526160095       -2.85523127412098       -0.14491160089941
25
 energy: 19.193626651928 xtb: 6.6.1 (8d0f1dd)
C            3.48877590286962        1.13007066262268        0.13663963934006
N            2.41729716581582        0.16840517103418       -0.08689290106866
C            2.59579207934455       -1.22300536221246       -0.25995569221568
N            1.35808600440929       -1.82872122209315       -0.18654911934758
C            0.44839957655609       -0.88909269167689        0.08869389089150
C            0.99702783602843        0.38572999245744        0.13348255009331
C            0.07008888254575        1.49839000269957        0.26928615504451
O            0.29175726089860        2.68528224604148        0.43383457401171
N           -1.39326086565055        1.15294843130806       -0.00792211885344
C           -2.50199307143479        2.07249589931898       -0.26587334310401
C           -1.69817159583968       -0.10863046911339       -0.35965907826563
O           -2.67124944369834       -0.45322218576304       -0.98761267380022
N           -0.88325630347245       -1.11305467703936        0.21988350191785
C           -1.40932664602353       -2.46095153906180        0.19913116529229
H            4.04921547497619        1.05644498732455        1.08643881344000
H            4.27485694259223        1.07798006217572       -0.62790221878721
H            3.06109837146716        2.12805958288707        0.11347750625983
H            3.43004954787806       -1.75125689650812       -0.68798952820713
H           -2.20206364546667        3.03860990688697        0.08410513556128
H           -2.83417500681073        2.14124637271583       -1.31431092079911
H           -3.34301056664992        1.76471266103270        0.35146040744857
H           -0.80899781784722       -3.09796784341251        0.83978938202883
H           -1.50995125917156       -2.88314674310129       -0.78524707556547
H           -2.42621003654084       -2.39958346865380        0.55920021749902
H            1.11545923083251       -2.81267566914633       -0.21376818144245
25
 energy: 30.539364631396 xtb: 6.6.1 (8d0f1dd)
C            3.51550778381436        1.10491209132734        0.15358096653813
N            2.40331846419690        0.20462251320297       -0.11918108292532
C            2.57411987618569       -1.16074793442031       -0.39228587164450
N            1.35694272082191       -1.79255009511527       -0.26145588192302
C            0.45749255463904       -0.87829183265644        0.12161019627344
C            0.99658526131256        0.40146373181393        0.19676698107966
C            0.06692565740489        1.50898663583198        0.34889810368551
O            0.27743985872488        2.68769295386832        0.54329948856309
N           -1.43918255720597        1.17880930568713        0.01696752335740
C           -2.57367976420566        2.05890360039624       -0.30819602871133
C           -1.63476871891007       -0.06898947163183       -0.42932449553228
O           -2.46791981419306       -0.42363842962493       -1.22552595310771
N           -0.87644163825877       -1.07856332685924        0.27168682892894
C           -1.41131824943778       -2.42762825707591        0.24738374089329
H            4.00928473176912        0.99621782813080        1.13360140302661
H            4.31915234620666        0.99905610747639       -0.58070425008194
H            3.15598096659856        2.12505027315989        0.10444447639796
H            3.41142495202846       -1.61890433297544       -0.88657676314416
H           -2.37506353716189        3.01159259545257        0.14054904758986
H           -2.84532140883412        2.22213309172916       -1.36703047417648
H           -3.43409520167711        1.65020690147376        0.20408311647138
H           -0.74360436865305       -3.11635237560989        0.74595668552870
H           -1.65331674721380       -2.80318345982734       -0.73037378830152
H           -2.36451392823717       -2.39469381224549        0.74739076641533
H            1.08702624582275       -2.77140118828433       -0.30141324609265
25
 energy: 43.017616727113 xtb: 6.6.1 (8d0f1dd)
C            3.54215326956381        1.05036162686179        0.19315532502331
N            2.41124502814407        0.18542034082067       -0.08583916596642
C            2.55690047276391       -1.15554977517135       -0.42137612322636
N            1.34986713762127       -1.78165409811437       -0.30101034234338
C            0.45579917129244       -0.88580339925274        0.14006607362964
C            1.01013467173140        0.39278987272142        0.24639593292368
C            0.11185290861181        1.50754734787759        0.40753456970333
O            0.29740278963971        2.67036073230099        0.66986103019827
N           -1.47843625280424        1.21569039633335       -0.00486866162776
C           -2.65899164823966        2.03980952863929       -0.34698628696565
C           -1.59467705780343       -0.01605145010071       -0.48765584970464
O           -2.26362676484644       -0.38251879983855       -1.42119615866021
N           -0.87550180846487       -1.04833314761234        0.29842088516323
C           -1.42246466765542       -2.39590097643238        0.29622457843551
H            3.94969974675815        0.93912158685384        1.21000279641604
H            4.36192166810293        0.87947697365668       -0.50773439837103
H            3.25306196291493        2.08784351552077        0.08322059566824
H            3.40909839898503       -1.62680416313536       -0.84407530485376
H           -2.56394328199952        2.96583718821115        0.18856203029635
H           -2.89827196697670        2.27251513141531       -1.39832994483350
H           -3.50795218656837        1.51656326012714        0.06218705200014
H           -0.69897146701816       -3.13040913401946        0.62183278212902
H           -1.81352665823111       -2.72033957022808       -0.65135210578970
H           -2.28220192634491       -2.39462897402664        0.94267534762348
H            1.09491558027363       -2.75925594186043       -0.38949830350753
25
 energy: 69.687162375396 xtb: 6.6.1 (8d0f1dd)
C            3.58468939481991        0.97679038414292        0.23091187605697
N            2.46399224773651        0.11593210208135       -0.05848801949070
C            2.58443147191570       -1.20011661898297       -0.46608490096841
N            1.37598101720442       -1.81008361507736       -0.30244676106607
C            0.47516919639934       -0.92366307104678        0.16459018170188
C            1.08920506757162        0.34428402186091        0.30109239853859
C            0.33793694767044        1.48394813896510        0.50279951940625
O            0.32750667912658        2.62671434934282        0.81283631183814
N           -1.66451770522380        1.23965213626460        0.00226995788793
C           -2.83086708985537        2.01662415658844       -0.38865951359751
C           -1.57101213399559        0.08317296002543       -0.56889870651899
O           -1.99352355661995       -0.34457671654115       -1.61361865814610
N           -0.83643241858802       -1.02914200893387        0.33126536192256
C           -1.42324386808990       -2.36265835822609        0.35238522694399
H            3.89197740618988        0.88938569523747        1.28407289504546
H            4.42110524997325        0.74612087258617       -0.42659893872103
H            3.35411339556172        2.02180440741614        0.04589127239275
H            3.48621592023441       -1.74114439270136       -0.65734774190062
H           -2.78683945562049        2.90950598198705        0.21133586690910
H           -3.02856457554134        2.29636109613618       -1.43880732634869
H           -3.65940607747020        1.40827502628277       -0.08560754010750
H           -0.68547797047511       -3.14529964409637        0.49814143621052
H           -1.96016285855295       -2.62825470052631       -0.54338073158016
H           -2.17661730879568       -2.38718533079992        1.12209721783243
H            1.12397398707373       -2.77028949152132       -0.48431262588531
25
 energy: 83.659287157432 xtb: 6.6.1 (8d0f1dd)
C            3.62620476036860        0.90479684161535        0.25706673143173
N            2.52017243323295        0.04360674296978       -0.05249910730799
C            2.62675125073084       -1.25266121275816       -0.51441201933905
N            1.40730865739337       -1.85719703924108       -0.30839455091167
C            0.49666062696136       -0.98484355564958        0.21506245265711
C            1.18252112699745        0.27839207509034        0.36229358841539
C            0.59547182596488        1.42901859495647        0.67416746642689
O            0.28790936084970        2.52565730601315        0.94141187551159
N           -1.85279324391798        1.35593470219427       -0.07864850439299
C           -3.06347068133033        2.03537992474334       -0.42591587766066
C           -1.57115160253399        0.36192238502278       -0.74850905899506
O           -1.63813754053691       -0.23370414413739       -1.76014173883292
N           -0.75555296683865       -1.08484565083751        0.47563026430549
C           -1.41774328133426       -2.36589578454968        0.43333752297294
H            3.84703154171083        0.85986926170777        1.33427985593787
H            4.47695494005161        0.60942487342883       -0.34766399042548
H            3.45122492692458        1.94968333983640       -0.00383082072482
H            3.52416053048205       -1.82253938797959       -0.45910171402247
H           -3.04461221188984        2.88325355699438        0.23440634466399
H           -3.21488510977818        2.34518212970883       -1.46765380809975
H           -3.80928606492316        1.31132281586434       -0.19844304723649
H           -0.73081322879548       -3.20788351507854        0.40723771309788
H           -2.06831964429865       -2.52256134474872       -0.41764014655496
H           -2.08576571587301       -2.40898936824286        1.27964397523274
H            1.16627969591982       -2.79393212391949       -0.56985486470459
25
 energy: 83.461988033135 xtb: 6.6.1 (8d0f1dd)
C            3.65502797406159        0.86852247243978        0.25792958390530
N            2.54759411062228        0.01509547878035       -0.04636617887189
C            2.66453744004425       -1.27781529237008       -0.54081990468500
N            1.43650485029095       -1.88741111685091       -0.30190672091374
C            0.51915573478042       -1.02790800641813        0.24501948204813
C            1.21824718002960        0.24210826558555        0.38748502897479
C            0.65353735793577        1.38217347623830        0.75037766153181
O            0.30578335560753        2.45779898653197        1.05948776405928
N           -1.92932429426940        1.48141612280478       -0.15282643333937
C           -3.21711899890097        2.03425729256405       -0.43001482999372
C           -1.55874036750859        0.56341509597487       -0.85829271477088
O           -1.44466052388497       -0.07715826510022       -1.82451917472763
N           -0.70571786667746       -1.12584522450654        0.56381175979900
C           -1.43307130102734       -2.35981423685276        0.50713988608900
H            3.82465252828718        0.91582363534958        1.33959947500068
H            4.51360525381377        0.48453230294506       -0.27885537624207
H            3.54075592602441        1.90099871690423       -0.08408848480714
H            3.50539354168855       -1.85264992236193       -0.23911522174552
H           -3.25619994087698        2.83876705935284        0.27656682486670
H           -3.37133257530990        2.38673281591628       -1.45444475994856
H           -3.87969221382441        1.21427286382743       -0.27646049754361
H           -0.80117369464255       -3.22732462786790        0.37319645023244
H           -2.16359496899825       -2.43526906272554       -0.29388290637191
H           -2.01672351277000       -2.41782317864364        1.41584539879478
H            1.21250663131717       -2.80799698037090       -0.61645315276550
25
 energy: 85.767886809370 xtb: 6.6.1 (8d0f1dd)
C            3.68920501985694        0.84215875254600        0.23356282904409
N            2.57910298908908       -0.01123995908094       -0.04748314093881
C            2.71302702109732       -1.30987045924539       -0.54659842643236
N            1.46043793183909       -1.90274656544760       -0.32071571106775
C            0.55043102190238       -1.05856037222582        0.26297564446819
C            1.26080032306076        0.21397594208135        0.40486942799796
C            0.71732280424172        1.35123065710180        0.79742293085877
O            0.35226620893350        2.40375474105000        1.16665050822804
N           -2.01090671489918        1.60265719201536       -0.19341579532447
C           -3.35235116317031        2.03757683172769       -0.43393620647333
C           -1.59411503439224        0.71393430138738       -0.90126181005206
O           -1.43163571407408        0.03506428510748       -1.82423738650345
N           -0.65573518226099       -1.16421894800929        0.62292896510717
C           -1.43638412508850       -2.35855821203070        0.54888211865109
H            3.82803200334538        0.95693426762627        1.30178326397152
H            4.54850648584220        0.37827277795637       -0.23126831648593
H            3.61834574488322        1.85645703022419       -0.17090010576244
H            3.44996817208663       -1.86705297386989       -0.01772415490559
H           -3.45243501710357        2.80703698405057        0.30179286909794
H           -3.52035738856245        2.40620224382505       -1.44923641531719
H           -3.94764259383539        1.16005886018719       -0.31689168727832
H           -0.86764360174086       -3.24605762018672        0.27169164003900
H           -2.24497957053743       -2.34068078988385       -0.18084412687772
H           -1.92737233663263       -2.44690676400054        1.51396049152888
H            1.24826111836183       -2.83000379714268       -0.60584375215606
25
 energy: 86.004943880075 xtb: 6.6.1 (8d0f1dd)
C            3.72197146089860        0.83472286402273        0.21252906777656
N            2.61395874289204       -0.02807797694971       -0.07093896715877
C            2.76941787263859       -1.34600776704668       -0.52870689649302
N            1.49149013991198       -1.92221498219952       -0.35750802936219
C            0.59492706273415       -1.09479803942941        0.27670575446256
C            1.30857346919827        0.18270354074400        0.42117649739557
C            0.78317459284155        1.30829346493938        0.86466524871288
O            0.40622319618908        2.36225642446931        1.22068026757124
N           -2.13271751503818        1.69272634336094       -0.22252225519788
C           -3.48725307384004        2.06209119115204       -0.44834919197970
C           -1.60700565091124        0.86790001889336       -0.92245813435307
O           -1.22188559631082        0.23361859375035       -1.81074053377484
N           -0.59537031379789       -1.20334478722939        0.67938066341092
C           -1.43444778277288       -2.35075200295744        0.59154286447989
H            3.80149008093178        1.04881407538427        1.27581073620313
H            4.58365438131745        0.29874043391900       -0.15966339272674
H            3.68012146324312        1.81219524666888       -0.28099158265183
H            3.39061185179747       -1.86063518316571        0.15808928494894
H           -3.62080384540028        2.81196000259170        0.29853486050305
H           -3.66920042609905        2.41324817035723       -1.46541216466279
H           -4.05991883138892        1.17325624423957       -0.30126520065572
H           -0.94771607992203       -3.24037496829391        0.19503815059236
H           -2.29958992833152       -2.23757017651550       -0.06836666481238
H           -1.84843485460908       -2.47049797611876        1.59158829072355
H            1.30582002012472       -2.87825217671131       -0.56290972036840
25
 energy: 83.794906088314 xtb: 6.6.1 (8d0f1dd)
C            3.76031263250998        0.82061109118417        0.19849564804666
N            2.65993274089928       -0.05349221528659       -0.10309513894864
C            2.81227904249086       -1.36834448794708       -0.59247195815037
N            1.53298280630323       -1.94478761534833       -0.37767316630519
C            0.65056958530111       -1.12643132302939        0.28812780225785
C            1.37124073085364        0.14859879743578        0.42941546016345
C            0.86145920411314        1.27344383931973        0.89385670814491
O            0.49770458364336        2.32561414807033        1.26659131066825
N           -2.25983626217495        1.75005815206877       -0.25927208483676
C           -3.62124303323583        2.06569946239158       -0.46611892415019
C           -1.62735517631943        1.00518004140450       -0.95284651514763
O           -1.05163760409483        0.45731711242474       -1.78950439490014
N           -0.52784042910554       -1.23848191419818        0.72396084742814
C           -1.40834385309629       -2.34920166522940        0.60854893826599
H            3.76981633753975        1.12597575329628        1.24515507778919
H            4.63108747355108        0.24145765490240       -0.07607398739518
H            3.75337430167906        1.76485052147481       -0.34396019811544
H            3.43992652958302       -1.88666302271696        0.08541337611215
H           -3.77649490286032        2.82053800108452        0.26877255830818
H           -3.82163207806528        2.38797911445631       -1.49033060720023
H           -4.17026293031295        1.16698634514466       -0.25554219077248
H           -0.96011976918030       -3.24838697592378        0.18194760081535
H           -2.27612814464896       -2.17429318348179       -0.03014730059724
H           -1.78807864519811       -2.48237053813596        1.62276708505778
H            1.29413365647034       -2.87565985852244       -0.63322503480769
25
 energy: 79.135740517091 xtb: 6.6.1 (8d0f1dd)
C            3.79351651752434        0.82241108734967        0.16683535756386
N            2.71171827861837       -0.09019964696823       -0.09812531135333
C            2.84069973894775       -1.39506605422715       -0.61717774646556
N            1.58250852649964       -1.99492025257860       -0.35423337111123
C            0.70891662300460       -1.16801583684788        0.31810555896749
C            1.43502497960535        0.10397374292693        0.46374273746598
C            0.94100121063777        1.22672357203987        0.95007716058671
O            0.57272945098145        2.28444347475874        1.30625520527078
N           -2.41725260038868        1.71739262257452       -0.27553816813797
C           -3.75465411088976        2.07026836803938       -0.50568556005994
C           -1.66552118562180        1.09598190311515       -0.95637617214710
O           -0.94148789211854        0.64589345160814       -1.73306790948960
N           -0.46043175002723       -1.28704649415468        0.77725856214161
C           -1.36135591823756       -2.37635396413365        0.62729424670658
H            3.75260017226258        1.22194054027833        1.18420002555959
H            4.68191383189968        0.24600053125125       -0.03453968463340
H            3.78858479159973        1.72879652989400       -0.44838163862857
H            3.54644402921029       -1.94268952760351       -0.03473549292029
H           -3.91282805768370        2.81619776441408        0.24129004669262
H           -3.94287628910341        2.38663763277476       -1.53426967675275
H           -4.33172532672989        1.19056023454191       -0.28043405103797
H           -0.92306296702075       -3.28812757945952        0.21252773105345
H           -2.22722508026475       -2.13199680654633       -0.00569679650083
H           -1.72508542249515       -2.51695174807760        1.64227781022779
H            1.24998425515922       -2.84612273082953       -0.75573824449890
25
 energy: 72.149507565122 xtb: 6.6.1 (8d0f1dd)
C            3.84246161406248        0.78263276808900        0.15568047929536
N            2.75390613469887       -0.13275829312579       -0.07674319797742
C            2.84075774998769       -1.41484050028305       -0.63467202692037
N            1.61227999347908       -2.04208907463290       -0.32168236680797
C            0.75463497114292       -1.20334384246120        0.35749578965378
C            1.48324686700325        0.06365904905691        0.49956126210643
C            1.01656546734432        1.18742452545908        1.00406364942730
O            0.67023424580947        2.25215811169005        1.36706317914347
N           -2.55055374762455        1.68520800938174       -0.37760307986822
C           -3.87076034108024        2.08214497844007       -0.56377167825877
C           -1.67225002663272        1.16905270678383       -0.97936214674961
O           -0.78310785807508        0.74909924543066       -1.58823599749963
N           -0.40503237890229       -1.34014915621965        0.83660487042880
C           -1.29778784236017       -2.43225498607475        0.64653492486168
H            3.79781015344173        1.19975539551288        1.16259472331445
H            4.73409887922092        0.19351949969805        0.02941748224539
H            3.85568764225967        1.66739073845879       -0.50310777496164
H            3.63041931230456       -1.99641305529512       -0.18237407594917
H           -4.01238587566838        2.84162940245391        0.17825966992851
H           -4.07234228795094        2.38412367771890       -1.59317535590850
H           -4.48198100094806        1.23765805220178       -0.29617216358406
H           -0.84140167624230       -3.35687397508930        0.27820244128099
H           -2.13354368702731       -2.17795222051874       -0.02783201710376
H           -1.67257343682633       -2.58255436086183        1.64978454765166
H            1.22218358454282       -2.82910232534081       -0.80582515607936
25
 energy: 66.081032943317 xtb: 6.6.1 (8d0f1dd)
C            3.89080936367019        0.74480552290233        0.12704585740185
N            2.78427961686573       -0.15870578800854       -0.04821317014777
C            2.82267404903669       -1.40871302305344       -0.65490317431456
N            1.61508457624079       -2.03239259793347       -0.32889692118095
C            0.78387544052130       -1.20991363742389        0.39286667372597
C            1.53047964043216        0.04303136296442        0.55073261494548
C            1.05672679597476        1.17920833942903        1.01200265730294
O            0.70962955073995        2.21353992999831        1.44749157930066
N           -2.69412961499427        1.63132011228960       -0.46046345102955
C           -3.99032057045504        2.09340109143742       -0.62197547139626
C           -1.68857808325616        1.27400483278432       -0.95954365710620
O           -0.67667021272708        0.90115036126203       -1.37482389037529
N           -0.35469708351159       -1.38685933388729        0.91180627328909
C           -1.24198910783213       -2.47436828989681        0.65550008090719
H            3.90777031404479        1.14882142278534        1.13942642804260
H            4.78188033440364        0.16132594097985       -0.02421009104917
H            3.88169522350298        1.61474813670652       -0.55258299821919
H            3.67708290101383       -2.01538329461949       -0.39276177550793
H           -4.10033326261286        2.90063132830708        0.07892853145655
H           -4.20179025060423        2.37352501825346       -1.65377695810859
H           -4.63588509883139        1.29050135626042       -0.30529130431494
H           -0.77632982215008       -3.42238724485542        0.36494108033503
H           -1.98927810149923       -2.21564077730215       -0.11302449571991
H           -1.71262763834585       -2.61157786895425        1.61314962242502
H            1.24688103982862       -2.87116463268532       -0.74596196362455
25
 energy: 61.347274568628 xtb: 6.6.1 (8d0f1dd)
C            3.91235888082805        0.71816749128563        0.11126545123693
N            2.80664788328994       -0.18564645470398       -0.02925710065710
C            2.80751331792668       -1.41703992919353       -0.63895363923718
N            1.60092757471857       -2.01812739186137       -0.33860382037884
C            0.78263063454583       -1.19382018170825        0.40664563632513
C            1.56782018234024        0.03065470274831        0.58582819511358
C            1.13289782438032        1.17875585204066        1.05447642839867
O            0.77802128072265        2.19181607294395        1.53511712970214
N           -2.82445410897047        1.54248426547715       -0.57157733950338
C           -4.09046803134434        2.10462535220462       -0.69058106036250
C           -1.71838670731201        1.33232915904720       -0.91867018071631
O           -0.62424683426449        1.04040434514755       -1.15597598704531
N           -0.36233534828187       -1.37587102145479        0.91532899070225
C           -1.23220706045330       -2.48052203002416        0.65766291638444
H            3.99600180157439        1.09024796348940        1.13583564170369
H            4.80786910738234        0.16862016935240       -0.14081083056318
H            3.82439073081539        1.60209721720106       -0.53385074088053
H            3.70015468567675       -2.02112504764981       -0.65210882012221
H           -4.17204574251482        2.94656680336468       -0.01645970685142
H           -4.30283117243981        2.38885334243355       -1.72147789871400
H           -4.77921418594174        1.34606142424610       -0.34922153765092
H           -0.79042594569867       -3.46100079115212        0.44707548808066
H           -1.86999230548755       -2.24182507764586       -0.20401414216201
H           -1.83705380945339       -2.58482454050411        1.55071451406288
H            1.28713441605030       -2.91235717653748       -0.68617598742488
25
 energy: 60.310437407417 xtb: 6.6.1 (8d0f1dd)
C            3.93528720469618        0.68389694283978        0.10155357034961
N            2.83777427620867       -0.22765588629689        0.03488686463315
C            2.81024135819673       -1.45505831090760       -0.55717834075580
N            1.59884997742550       -2.03310432448491       -0.27159423279532
C            0.77951432383105       -1.17791773965702        0.45008471553466
C            1.59805148023091        0.02073651085276        0.63922055641492
C            1.20989163675040        1.18862114033199        1.10552515914488
O            0.87988218928869        2.19865466867276        1.61299275556336
N           -2.95088447101661        1.45911235238312       -0.72989523940759
C           -4.19632646963918        2.09834788194334       -0.74895936030806
C           -1.77558111504423        1.42127632754752       -0.83282020052796
O           -0.63621359383386        1.20907510317309       -0.87251719588060
N           -0.39542753256850       -1.32801949712569        0.90351799478214
C           -1.22117640367053       -2.46525364856279        0.63881322778256
H            4.08624951406535        1.01812544096507        1.13346312596240
H            4.83256103381296        0.17816751557366       -0.23556366157614
H            3.77331867750922        1.58169998364178       -0.50940404540542
H            3.69438515088245       -2.01646534630909       -0.81933874690037
H           -4.25886660109129        2.95622555852008       -0.07389437560357
H           -4.42634016115831        2.39476412542098       -1.77470013958736
H           -4.90403351453480        1.34751284877651       -0.40615888502674
H           -0.71824273388634       -3.43307851488187        0.50314034788465
H           -1.79040774102066       -2.24737850592109       -0.26424327187715
H           -1.91245294453852       -2.57875283968339        1.47211057283626
H            1.32389468669977       -2.94561849726144       -0.59099121073523
25
 energy: 60.008479276359 xtb: 6.6.1 (8d0f1dd)
C            3.96080088457243        0.64807872649325        0.09502123622728
N            2.85701449162249       -0.25560002496547        0.09586820793679
C            2.83359553178530       -1.49827508895931       -0.43123983950262
N            1.60103973787498       -2.04216680689019       -0.23622583000727
C            0.76066407387387       -1.15582345841647        0.43591671378167
C            1.59458082616567        0.03098664116504        0.64333497595928
C            1.24284820692744        1.19409888220160        1.15589676909029
O            0.93929457007576        2.21635606266890        1.66108914411502
N           -2.99137064457781        1.45703620302430       -0.78223783637832
C           -4.24558296421150        2.09706137976780       -0.80454537119443
C           -1.80831678213855        1.46061198333914       -0.77634308333663
O           -0.66481848745378        1.26767222738171       -0.79565331298171
N           -0.43678130645856       -1.28355823704774        0.83531183967996
C           -1.24969740283712       -2.44033012756534        0.62350239828250
H            4.17409133346821        0.97674040867847        1.11526589419614
H            4.84172916620804        0.15328128642241       -0.31200323321426
H            3.73288701621049        1.52915508884966       -0.51133883642398
H            3.65758625269899       -1.96685653584213       -0.91399780592611
H           -4.25736373436439        2.97995543406251       -0.16192902765405
H           -4.49764740906404        2.38900503046897       -1.82706307016028
H           -4.98831274826089        1.38218330060427       -0.44760595241852
H           -0.70151103529900       -3.38980925538752        0.55824504558265
H           -1.84009094562431       -2.31219657584760       -0.28945583253814
H           -1.94618054390217       -2.49335882091440        1.46247303656101
H            1.34375621768187       -2.95521893455017       -0.56525231748163
