  25
        -42.15669401
 C          2.2822003989        0.7239863607       -0.7134942288
 N          2.2830278578       -2.2719831855        0.0989035766
 C          3.0972634318       -1.7347794869        0.9748565116
 N          1.0262264435       -1.9908383714       -0.1891882156
 C          0.4090700739       -0.8234233851       -0.1596566789
 C          1.0180493043        0.4817773992       -0.2808068322
 C          0.1728316513        1.6642333497        0.0083966963
 O          0.6343200514        2.7746613217        0.1444482404
 N         -1.1876895165        1.4317331519        0.0886814162
 C         -2.0741846470        2.5633917980        0.2896737682
 C         -1.7951903583        0.1973253923       -0.0370225775
 O         -2.9953086415        0.0781247637       -0.0285161493
 N         -0.9518565988       -0.9064471680       -0.1340989004
 C         -1.5756550292       -2.2133933608       -0.1616950010
 H          2.8224439381       -0.8639531638        1.5437938290
 H          2.9639207413       -0.0393222553       -1.0398652304
 H          2.6143857869        1.7468073879       -0.7839677340
 H          4.0505983803       -2.2026140638        1.1357009620
 H         -1.4863734047        3.4774488064        0.2182621850
 H         -2.8616190428        2.5521223928       -0.4654006420
 H         -2.5448375395        2.5015234127        1.2730746328
 H         -1.2988795075       -2.7832174997        0.7259478621
 H         -1.2475593943       -2.7594163664       -1.0458255279
 H         -2.6560901299       -2.0755773804       -0.1876406799
 H          2.5822445404       -3.1363218032       -0.3782560690
