25
 energy: 101.405308186338 xtb: 6.6.1 (8d0f1dd)
C            3.33040639843416        1.27881452330903        0.12299954565840
N            2.37753451840199        0.20173118934222        0.05680908879294
C            2.73040731131159       -1.11639094999121        0.10488020561838
N            1.60240329386706       -1.88247005856973        0.08758949571709
C            0.48547903652295       -1.11452333658125        0.04571983204878
C            0.96617644365022        0.21643012016132        0.02620617890673
C            0.05062548580741        1.28978639212162       -0.04582156601625
O            0.42221280820782        2.47060587527480       -0.11120334725167
N           -1.34606120307469        0.88948852056287       -0.05428293970332
C           -2.15082098512559        2.11056251360522       -0.11259617801581
C           -1.83993898689468       -0.42542423608099        0.05422260420544
O           -2.96269722488387       -0.97066853502531        0.05547161136866
N           -0.85838866330495       -1.44364388006178        0.01436102890960
C           -1.60890385394758       -2.69528427460384       -0.14635082625388
H            3.86042487734423        1.30244529342592        1.08539340679092
H            4.09560738009275        1.17374683671978       -0.65708876393103
H            2.81955594974293        2.23018864081229       -0.00960179590676
H            3.72490673288610       -1.51958699803187        0.18078026769790
H           -1.44260861108649        2.94578472489561       -0.03735866148329
H           -2.68866228260167        2.23651246314043       -1.04727102605445
H           -2.82389405740730        2.18220418121734        0.73457866079911
H           -0.94178287066444       -3.52779673227871       -0.05313067523253
H           -2.24520793139746       -2.76291823007977       -1.00556377886574
H           -3.40415192171466       -3.20634802707086        0.54270905616990
H            1.62400639149214       -2.88632191293177        0.08071090488627
