25
 energy: 62.692608087789 xtb: 6.6.1 (8d0f1dd)
C            3.31883428829149        1.26627401580233        0.11662434322984
N            2.36633220849150        0.19321771322592        0.04945932496821
C            2.72462064632613       -1.14161043968991        0.09165059789643
N            1.57606145307522       -1.89113135370815        0.08011674085731
C            0.46430002595369       -1.12364505186825        0.05526095419079
C            0.95064280041170        0.20960177148472        0.02891328131141
C            0.06480976778833        1.29256278622526       -0.05436963449266
O            0.42350057055381        2.47962321615596       -0.13245191111097
N           -1.35495978864256        0.89095730965717       -0.06444335349790
C           -2.15793073067001        2.10980511777145       -0.10658015913670
C           -1.85233836467906       -0.39986800618871        0.06688162993091
O           -2.99215176536379       -0.88811500557594        0.07524238789333
N           -0.90746047077351       -1.44273387569868        0.05559745578529
C           -1.73751211604098       -2.73643341288079       -0.07459688728404
H            3.84480389432737        1.29534260338861        1.08268432669562
H            4.08690921982472        1.15923765902540       -0.66160855519751
H            2.80486734223316        2.21496792433429       -0.02101586792047
H            3.71707384841848       -1.54907778939438        0.17194985144095
H           -1.46373340198171        2.95745824600283       -0.04227379826090
H           -2.70684823753013        2.21715583505203       -1.03839657664228
H           -2.82440887724769        2.17848387351381        0.74720567454487
H           -0.98638805868690       -3.50500983195064        0.06559197764452
H           -2.14913526941275       -2.82732968272560       -1.06863869899547
H           -3.05421072503147       -3.06927418550382        0.51651169902051
H            1.59491796867796       -2.89400886682482        0.07496320263606
