25
 energy: 6.890007707939 xtb: 6.6.1 (8d0f1dd)
C            3.26873663165775        1.20522648022690        0.09604670753106
N            2.32939544823119        0.12867142359028        0.03544864484317
C            2.65286398611999       -1.21633080415755        0.05733246325767
N            1.47683568349556       -1.92118137342462        0.02537470354476
C            0.41769154866365       -1.08570373854902       -0.01765163246043
C            0.93096353379261        0.21946630629345       -0.01195607870716
C            0.08482694612929        1.33151547685404       -0.04596209201727
O            0.41373516987313        2.52637571432928       -0.05764611240295
N           -1.33364331531886        0.95569602333816       -0.05317827114472
C           -2.20572661683704        2.12005274141093       -0.07518432208425
C           -1.87804096946669       -0.31535124227873       -0.05394965138460
O           -3.04776441800996       -0.67721701924784       -0.05891111414791
N           -0.94356972284181       -1.36271100268919       -0.02616095066822
C           -1.63096545672751       -2.65077533271337       -0.03472495317697
H            3.76150194082996        1.24842421598285        1.07490680474175
H            4.04209280123238        1.08103628940414       -0.66883945798801
H            2.73766633021358        2.14142486493507       -0.06822217112373
H            3.63405844328388       -1.63326224113591        0.09298108440013
H           -1.58910769626503        3.02362275000883       -0.03078014618774
H           -2.78579093409763        2.13933589119984       -0.99514206600342
H           -2.86379684688518        2.11213361886865        0.78885935175109
H           -1.04408525190248       -3.32940448373724        0.58233674366921
H           -1.56695534629498       -3.06693019599749       -1.03964584124381
H           -2.74692041253216       -2.55853724198626        0.28423912263068
H            1.44456324882846       -2.92289535665945        0.03243020508859
