25
 energy: -5.050286882851 xtb: 6.6.1 (8d0f1dd)
C            3.24985380537724        1.18346614978393        0.08969170146922
N            2.31278116620438        0.11008591704236        0.03540608710006
C            2.61848488607548       -1.23245954338504        0.03787122073939
N            1.43957765027124       -1.93137752163907        0.00790795862510
C            0.40639036895132       -1.06638271171367       -0.01250716015108
C            0.92369910765299        0.22703949472247        0.00718414368992
C            0.10758706735382        1.37301496723523       -0.01653525556744
O            0.47144261696646        2.55554845407071       -0.01715657015958
N           -1.28714230696132        1.02084589677761       -0.03749438130504
C           -2.21517936412178        2.13936071466100       -0.05772738618692
C           -1.83213666974648       -0.23463618505250       -0.04721009111870
O           -3.02380947264472       -0.48234814572081       -0.06104489793901
N           -0.93695031253586       -1.31827807575251       -0.03973555720936
C           -1.53002593271962       -2.63610802661251       -0.05748068208229
H            3.73235513275030        1.22860620276191        1.07117656389744
H            4.02079732898887        1.05263019489561       -0.67349929029490
H            2.71013612380859        2.11343946816247       -0.08224338768442
H            3.59628008981551       -1.64760194272881        0.05519993807939
H           -1.63925550794026        3.06498680485691       -0.02796824140621
H           -2.81260666204450        2.10791000578558       -0.96764305020260
H           -2.87187536639018        2.08862047251330        0.80811336567436
H           -1.12776964674128       -3.23362203633475        0.75757302308245
H           -1.28379332777018       -3.14059775654564       -0.98908257676153
H           -2.63411799068079       -2.53537680519973        0.03395458480312
H            1.39167941837491       -2.93393215263393        0.00345751863041
