25
 energy: 145.751810405614 xtb: 6.6.1 (8d0f1dd)
C            3.36782443795246        1.30141545454230        0.13120551949696
N            2.41067650322821        0.21326979248458        0.08942629713076
C            2.74665244065828       -1.11084769874974        0.17220845643822
N            1.61219283785053       -1.87396643535283        0.13343249365507
C            0.51299867406140       -1.07019753611155        0.02429638811363
C            1.01709408768652        0.24495904380919        0.00890182513725
C            0.11246872307875        1.34807465528366       -0.04309809413633
O            0.48742804510587        2.52601011826818       -0.09841474135369
N           -1.25244184948406        0.94877501580460       -0.03862344754954
C           -2.11567693473466        2.12507237070379       -0.11941129029061
C           -1.78442203166307       -0.29983459566894       -0.03817426802521
O           -3.35567757672892       -2.05876368523460        0.21740019464504
N           -0.85364309852644       -1.33531585082651       -0.05777593597832
C           -1.53442423712563       -2.53065937015989       -0.31430669831989
H            3.91869651439412        1.32692717374686        1.08061562707846
H            4.12500332749351        1.22086030428286       -0.66053155245194
H            2.86281101572621        2.26053179053702        0.01498381090255
H            3.74983216910792       -1.46505205618447        0.22610698665332
H           -1.43746019222318        2.97720134105558       -0.04057024777980
H           -2.63996099227429        2.20533740221849       -1.07304621511679
H           -2.83253487846436        2.14518830927600        0.69285919565517
H           -0.96521375998890       -3.45147671016131       -0.31450253836543
H           -2.39718006327123       -2.49622931441416       -0.95736599746699
H           -3.93377640720760       -2.95875529880800        0.40363700226780
H            1.67116197404703       -2.87586380202013        0.14202946366391
