25
 energy: 132.804571869048 xtb: 6.6.1 (8d0f1dd)
C            3.38700976935990        1.31341623705048        0.10573943514494
N            2.45936606087659        0.21647599552075        0.07582349637766
C            2.75916652246350       -1.08168385315557        0.12424645839130
N            1.65044869253012       -1.83169459342864        0.07514988071206
C            0.55908583980557       -0.98358414870655       -0.01849780262709
C            1.07458395603649        0.32452925301930       -0.00558559439164
C            0.23335369869024        1.46179347333767       -0.04712290172516
O            0.62026415308878        2.63886451926285       -0.05488422843700
N           -1.13168798621117        1.05092783570852       -0.07051286166933
C           -2.06129142278383        2.18342776441153       -0.10920881698536
C           -1.67077489571611       -0.19117179814726       -0.09000538070552
O           -3.96581686012633       -2.64894225302807        0.01936203048043
N           -0.76315148134547       -1.27773943417339       -0.10619932483164
C           -1.22236328411635       -2.53176721595271       -0.25571222773458
H            3.89994929631281        1.37245688032828        1.06744239160046
H            4.12924914161915        1.19038860565563       -0.68238027245595
H            2.82639756264397        2.23870204844383       -0.06243991759691
H            3.75343615352101       -1.48401150444637        0.20086724906989
H           -1.46118825080631        3.08830093018677       -0.04535219601712
H           -2.63172304425783        2.15947899963989       -1.04742240500162
H           -2.76491078004835        2.15829467289022        0.72680086734058
H           -0.58153028145437       -3.38854665240511       -0.37109527436771
H           -2.30796821963124       -2.60519529352715       -0.10183731324990
H           -4.91095572955836       -2.81807492726096        0.12284938854628
H            1.62069483752037       -2.84459160506244        0.14112333343632
