  72
        -99.17542876
 N         -1.6359894857        2.6255814066        2.6165777016
 C         -1.6053893154        2.0083604772        1.5324643375
 C         -2.7297844869        1.9708294262        0.5348443968
 C         -3.2786157037        0.5547663801        0.4470198714
 C         -4.1984916963        0.2282443919       -0.5514983860
 C         -4.7409217062       -1.0424948429       -0.6488288912
 O         -5.6412792287       -1.4368556487       -1.5716695712
 C         -6.1778358516       -0.4879041004       -2.4633468639
 C         -4.3454015344       -2.0456048122        0.2780349815
 O         -4.9172100217       -3.2528847102        0.1049942131
 C         -4.6445427604       -4.2801627357        1.0298486827
 C         -3.4314553157       -1.7144930579        1.2659585331
 C         -2.9091527646       -0.4301876742        1.3501919742
 C         -2.1060831958        2.3839021529       -0.8242936686
 C         -1.2282254732        1.3010336886       -1.4737576578
 C          0.0650960041        1.0951919593       -0.7860021474
 N          0.6310673823       -0.0824334968       -0.5544248439
 C          2.0045657187       -0.1452929897       -0.1154336111
 C          2.9673456797       -0.2369979700       -1.3136989490
 C          4.3912242586       -0.3167289382       -0.8253982535
 C          5.1643481785        0.7786300117       -0.9322785022
 C          6.9886801505        2.2589879046       -0.5194006583
 C          6.5730410770        1.0035499032       -0.6154366494
 O          7.3786826434       -0.0635222240       -0.4546738604
 C          8.7109965482        0.2571800916       -0.1224860332
 C          4.7788961048       -1.6049947936       -0.2104041728
 O          5.7082169053       -1.5129346018        0.7703152559
 C          6.1617840080       -2.7490112433        1.2720628267
 C          4.2145877763       -2.7506688622       -0.5554258408
 C         -0.0343833681       -1.3272556130       -0.8551030989
 C         -3.9024309770        2.9315655304        0.8913288278
 C         -4.6008361338        2.5049601882        2.1800087737
 C         -3.4722091923        4.3919767955        0.9959612459
 H         -4.5064629125        0.9846444792       -1.2541567641
 H         -6.6674760098        0.3318077338       -1.9291562981
 H         -6.9178361703       -1.0267826264       -3.0516849234
 H         -5.4107288417       -0.0842889888       -3.1322708349
 H         -4.9338896973       -3.9923325885        2.0447917319
 H         -5.2464335148       -5.1282840115        0.7097433319
 H         -3.5867789257       -4.5617471909        1.0169777061
 H         -3.1264689111       -2.4491172816        1.9933583371
 H         -2.2255796077       -0.2038993524        2.1536707953
 H         -2.9093829889        2.6283648994       -1.5183997261
 H         -1.5108658633        3.2860682967       -0.6783037165
 H         -1.7914339244        0.3729322770       -1.5545018993
 H         -1.0036631830        1.6446031917       -2.4923348639
 H         -0.7210222625        1.4508696525        1.1638899857
 H          0.6730307617        1.9671980497       -0.5931753056
 H          2.1419183120       -1.0184023154        0.5262041957
 H          2.2444871522        0.7497635020        0.4632941593
 H          2.8363221509        0.6434340801       -1.9441936739
 H          2.7254836156       -1.1193860644       -1.9058726639
 H          4.6930137142        1.6678860982       -1.3351582539
 H          6.5603629291        3.2258035867       -0.6348720324
 H          8.7504379021        0.8400936660        0.8039137760
 H          9.1760903621        0.8442964976       -0.9217851872
 H          9.2375622653       -0.6857676022        0.0049625339
 H          6.9734616573       -2.5276176403        1.9612751605
 H          5.3535555388       -3.2720532794        1.7973096555
 H          6.5203853755       -3.3910211579        0.4606678265
 H          3.5257230899       -3.1046056770       -1.2838683568
 H         -0.1793110455       -1.4496513146       -1.9307358265
 H         -1.0090393779       -1.3658246422       -0.3630887656
 H          0.5703831131       -2.1534640560       -0.4902270748
 H         -4.6276045615        2.8510202101        0.0734724615
 H         -3.9170791650        2.5866579675        3.0187979155
 H         -4.9577086527        1.4800382744        2.1131733886
 H         -5.4534497880        3.1531903016        2.3638360341
 H         -2.7331364481        4.5122821578        1.7819539850
 H         -3.0650974920        4.7644643326        0.0596971422
 H         -4.3369172993        5.0003678233        1.2474262444
 H         -0.8083315770        2.6056173131        3.2037333127
