  72
        -99.33893433
 N         -1.7381787402        2.7077913305        2.4913673028
 C         -1.7367012106        2.0872575200        1.4068607562
 C         -2.9047030600        2.0057273174        0.4638931180
 C         -3.4278848902        0.5773353162        0.4270812584
 C         -4.3926333375        0.2190447791       -0.5168660800
 C         -4.9186466956       -1.0604805051       -0.5652169088
 O         -5.8625800868       -1.4823594554       -1.4341919479
 C         -6.4636174150       -0.5498457713       -2.3010458310
 C         -4.4595664568       -2.0407222904        0.3540734848
 O         -5.0224849157       -3.2613820584        0.2312626878
 C         -4.6892186486       -4.2637637503        1.1622816695
 C         -3.5003129800       -1.6803664668        1.2859510587
 C         -2.9947066156       -0.3863675133        1.3232420252
 C         -2.3572475813        2.4026086691       -0.9324402564
 C         -1.4740386555        1.3318488568       -1.5974581472
 C         -0.1363725194        1.2072948790       -0.9776134070
 N          0.4866308687        0.0601040671       -0.7131375608
 C          1.8660249532        0.0629202256       -0.2916708539
 C          2.8232658493       -0.2534067993       -1.4544100110
 C          4.2460032090       -0.1354541972       -0.9794646035
 C          4.9171999819        1.0262287964       -1.1153441412
 C          6.3150882694        1.2097776557       -0.6390531896
 C          6.9334482578       -0.0532443711       -0.1267744595
 O          8.2274195429       -0.1189479977        0.1411852083
 C          9.0694398781        0.8727424305        0.0837078470
 C          6.1663969231       -1.2302043487        0.0553274757
 O          6.8298282126       -2.2609232572        0.6240241363
 C          6.1717595242       -3.4985533565        0.7741558034
 C          4.8453921575       -1.2598085296       -0.3469213459
 C         -0.1509884289       -1.2199451882       -0.9032371235
 C         -4.0808968043        2.9471143501        0.8579458028
 C         -4.7119291313        2.5275073265        2.1835405852
 C         -3.6779182446        4.4178482310        0.9213953246
 H         -4.7486834015        0.9586422051       -1.2144455352
 H         -6.9316946044        0.2692038919       -1.7465577100
 H         -7.2300847534       -1.1038805775       -2.8393659801
 H         -5.7433155060       -0.1428430965       -3.0184140394
 H         -4.9280359995       -3.9567260237        2.1848975937
 H         -5.2967845282       -5.1255962502        0.8933409834
 H         -3.6301643026       -4.5345523040        1.0999302172
 H         -3.1456111195       -2.3985059332        2.0074407177
 H         -2.2740176006       -0.1359341355        2.0863280246
 H         -3.1994896748        2.6039204820       -1.5934314830
 H         -1.7853125479        3.3263449719       -0.8369096667
 H         -2.0008953922        0.3792875790       -1.6087099621
 H         -1.3284979389        1.6448478041       -2.6399582359
 H         -0.8509974682        1.5612013259        0.9999666479
 H          0.4471299070        2.1085426368       -0.8626717369
 H          2.0021442868       -0.6734967523        0.5047665926
 H          2.1185222694        1.0474230921        0.1081075042
 H          2.6429795578        0.4582827916       -2.2612793896
 H          2.6311530398       -1.2583772334       -1.8310278182
 H          4.4623127107        1.8798088760       -1.5939535906
 H          6.3353716722        1.9880553868        0.1422456573
 H          8.7632744421        1.8898738772       -0.1275087284
 H          6.9231992102        1.6056618417       -1.4709138323
 H         10.1073795504        0.6138258145        0.2332273233
 H          6.9101743990       -4.1722566167        1.2044131740
 H          5.3177351011       -3.4198302934        1.4538048472
 H          5.8393079710       -3.8934773234       -0.1903612464
 H          4.2566454594       -2.1529364321       -0.2239894243
 H         -0.3446721722       -1.4124062473       -1.9607709499
 H         -1.0984157304       -1.2593942775       -0.3597774390
 H          0.4993418224       -2.0032302639       -0.5225260818
 H         -4.8403773059        2.8390003229        0.0752460113
 H         -3.9942678370        2.6412126656        2.9893758578
 H         -5.0448321523        1.4929979269        2.1500096967
 H         -5.5723521987        3.1575771189        2.3929344533
 H         -2.9043747720        4.5649408229        1.6685924424
 H         -3.3245608296        4.7841011798       -0.0389224961
 H         -4.5424602617        5.0117950785        1.2060218812
 H         -0.8794623221        2.7132824376        3.0332662329
