72
 energy: -6.232687809394 xtb: 6.6.1 (8d0f1dd)
N           -1.57078529753071        2.83992458558572        2.29896934224434
C           -1.59284737102879        2.13777714748377        1.25169615553098
C           -2.75620320563858        2.05074925414610        0.29986043325090
C           -3.34195015905838        0.64969311586484        0.35179938636538
C           -4.31335337540807        0.24413276721620       -0.56331058637929
C           -4.86510304077823       -1.02165440073369       -0.52736825942478
O           -5.82480323891924       -1.49183740614580       -1.37696602383530
C           -6.35865141818746       -0.62076295656939       -2.33671580661267
C           -4.44157931049693       -1.93715668434402        0.45652522062379
O           -5.04569145814029       -3.16220337461005        0.42418611651145
C           -4.73790063337657       -4.07034879192122        1.45101847119462
C           -3.48374251910166       -1.53067994452389        1.36370498986035
C           -2.93809917133413       -0.25585131230915        1.30967757164039
C           -2.18765863670293        2.29156570243746       -1.13358887289425
C           -1.26504616412191        1.17736382846487       -1.66800869848449
C            0.02458279443839        1.12182671917704       -0.93156463543658
N            0.64698337797754       -0.06155698201736       -0.56608486620097
C            2.02145236358615       -0.05713469416636       -0.17250043198782
C            2.96331246629634       -0.54339067275293       -1.30130154567000
C            4.38891326873454       -0.43386684672561       -0.86484612704563
C            5.10808606214496        0.73090238821959       -1.05873327179159
C            6.41367454939641        0.84665239210361       -0.60315936525120
C            7.02173801733499       -0.20515416039599        0.05796236241555
O            8.29671163503423       -0.20665398932685        0.53558581296932
C            9.08230508494030        0.93951691939348        0.32946534219951
C            6.29501724287713       -1.39663270125129        0.27359990941825
O            6.97158940837728       -2.38134810574799        0.92988703340620
C            6.32087097088879       -3.60474026988754        1.14555602508667
C            4.99585872434764       -1.49266922242063       -0.18794587192592
C           -0.02583780453569       -1.32987550506250       -0.63385855199699
C           -3.89325696098987        3.06492566758867        0.61227804634614
C           -4.55735848020776        2.78844535313351        1.94763031038453
C           -3.38442693914636        4.49945205007786        0.60504366429118
H           -4.61885398292551        0.92960208694859       -1.33330289388303
H           -6.80731685285836        0.26050346267621       -1.86576544093298
H           -7.13045142220510       -1.18983363256033       -2.85829616945393
H           -5.59644993056453       -0.29598999591969       -3.05130280286632
H           -4.96567725072741       -3.66041724357337        2.44219963937823
H           -5.35517625631833       -4.95455703526123        1.28398136388772
H           -3.67810420100433       -4.35143624444453        1.42094749559160
H           -3.14709867089195       -2.20252403727872        2.12760046437871
H           -2.19024622780143        0.03201511893689        2.02820658108494
H           -3.01925196666182        2.42016833802290       -1.82667820299443
H           -1.61976449504604        3.21950003763626       -1.13043750805557
H           -1.79252665529274        0.22778868478445       -1.61127759054082
H           -1.06492621623911        1.38857240385034       -2.73051595548276
H           -0.72331113773062        1.61542855229289        0.78858375321195
H            0.67958699654287        1.97246972958115       -1.06696298490559
H            2.15130014771209       -0.69200095613900        0.71516261131958
H            2.30619642527237        0.96084181904995        0.09376706199468
H            2.77750835696809        0.07927648595337       -2.17762079146414
H            2.72024833965976       -1.57648261226957       -1.55442498445447
H            4.65927267496747        1.56736658051982       -1.57000143770244
H            6.94594633845000        1.76778662983184       -0.77712532449106
H            8.65438966168136        1.82056537097056        0.82211326338306
H            9.20557758739303        1.15945228998629       -0.73639284225337
H           10.05241728791809        0.71173628800318        0.76683585120297
H            7.04117375403573       -4.23528714551559        1.66074970416521
H            5.43528735435905       -3.48873105022935        1.77960073651082
H            6.02750616938640       -4.08110173705455        0.20183574655180
H            4.43311639981182       -2.39994710522588       -0.03430828240869
H           -0.21053309206467       -1.65833171927069       -1.66573188956138
H           -0.98473492803172       -1.26681683714357       -0.12664295591645
H            0.57850119701240       -2.09470124269805       -0.14300578291901
H           -4.58750544215298        2.92946858039702       -0.21791882150639
H           -3.80116520076915        2.90274650507412        2.72636187049510
H           -4.95372004171145        1.77866451502150        1.97082393313478
H           -5.36949324554239        3.48962381058998        2.12064866794885
H           -2.55468488159710        4.60089310307257        1.29217806062241
H           -3.05879418297293        4.78085365133897       -0.39011117193890
H           -4.17223304851319        5.18130838426042        0.91794934606065
H           -0.71558304327129        2.80374409581580        2.85146706199402
