72
 energy: 120.526483787455 xtb: 6.6.1 (8d0f1dd)
N           -0.75784147143726        2.09572896813909        1.97865220215591
C           -1.32887941266574        1.33416946378240        1.13024927488991
C           -2.62556624416815        1.68934196502557        0.35573850043078
C           -3.61277118546331        0.54211706271364        0.44842521214246
C           -4.30001753191430        0.00912313288642       -0.63548924897306
C           -5.09252591916382       -1.10875883034308       -0.48546521564738
O           -5.78373084000079       -1.69118295254066       -1.50965250868104
C           -5.79425826023708       -0.99595372696600       -2.73102146725401
C           -5.08478953308038       -1.80009193938286        0.73776605039048
O           -5.81794846500849       -2.94996212962873        0.75039255139460
C           -5.86136471643533       -3.68102413371802        1.94470090529537
C           -4.39250728937523       -1.28900687427298        1.82002734986140
C           -3.70495800375027       -0.09494524928084        1.69693313710962
C           -2.09292886317734        1.99118550266248       -1.01711664527782
C           -1.32925043008359        0.76271296998418       -1.53969267919161
C            0.10539455756091        0.89269110228699       -1.15122579780067
N            0.90684689079508       -0.22655945212397       -1.00958440617849
C            2.29790215290840       -0.17702477128150       -0.66981447710840
C            3.33358236788467       -0.44758906234009       -1.80384214308423
C            4.71738568673291       -0.28953768671259       -1.21740765765880
C            5.42040920526741        0.90719023647524       -1.26338149122979
C            6.67358683715122        1.03386282349538       -0.67049288886271
C            7.24440605814645       -0.03986083548896       -0.01047270735271
O            8.45524014729959       -0.04744602177390        0.62662780360564
C            9.24194482220986        1.11042354636169        0.52070499200422
C            6.53185820836961       -1.25829879948631        0.04628571935324
O            7.14438898443587       -2.25740797485065        0.72981140838609
C            6.43490637440803       -3.44944227574798        0.92770576914957
C            5.29576154260116       -1.37846484465135       -0.55592354868261
C            0.38447683911837       -1.57595654085185       -1.06383311946104
C           -3.31220319824317        2.90404954169483        0.95749243472157
C           -5.14618136902067        2.97939441211147        2.19320369649454
C           -2.55815633937605        4.14984518415904        1.20975713850051
H           -4.15075070864615        0.46224748964560       -1.58699445463245
H           -6.22002197597641        0.01547153728645       -2.65558014158267
H           -6.42234284859118       -1.60574674811390       -3.37177301440065
H           -4.79718215469727       -0.91327192978680       -3.16664427411346
H           -6.34583209541552       -3.14712762937570        2.76977909385635
H           -6.48093787111745       -4.55074747148244        1.73406105396116
H           -4.84601832706408       -3.95899909630333        2.23937160444031
H           -4.40540034683747       -1.80908782527040        2.76579518365992
H           -3.21062271606622        0.27477257654318        2.58655543645828
H           -2.86645961252668        2.28977372493423       -1.72719108601394
H           -1.37188331656818        2.79701585320704       -0.88934848749485
H           -1.77254470197407       -0.15664310294627       -1.15911719790485
H           -1.46554237528619        0.69116838501340       -2.61801576730034
H           -1.15495297331693        0.35877234776087        1.35894397350067
H            0.61992210765180        1.76475366985140       -1.58774064069465
H            2.48332182091910       -0.95348269745898        0.08653167984230
H            2.48320051638573        0.82768694686129       -0.25898938393444
H            3.20141730536031        0.28715300359256       -2.60270500663117
H            3.20080649341208       -1.47711123609927       -2.19536446928800
H            5.01575426966360        1.76797247509393       -1.77619618876177
H            7.19487179248092        1.97726371589528       -0.73031395099653
H            8.77366278295196        1.96446398547363        1.03304700340134
H            9.43457885467636        1.36779816039358       -0.52517801868893
H           10.19179959295780        0.88448929083630        1.00316102850777
H            7.10143156387672       -4.04523286150626        1.53742299641522
H            5.48792986458956       -3.29267755424651        1.47658552168824
H            6.26367611517827       -3.96183101564109       -0.02977957858467
H            4.78038742448213       -2.33433677085502       -0.51484097228197
H           -0.16019629818012       -1.71780406894832       -1.99754769337279
H           -0.28318239973112       -1.81025028549765       -0.24553953371840
H            1.25589006383588       -2.26642302714418       -1.04108958740499
H           -4.35935472811860        2.99252449865239        0.92017805367068
H           -4.88243975517837        2.99141067936051        3.21634022561705
H           -5.71773375553518        2.13567080625308        1.87194927599289
H           -5.61668124131772        3.89968180256191        1.86438885165009
H           -1.57274513901837        3.85724438693680        1.54476922358254
H           -2.45996093353848        4.71135418662708        0.27524572520683
H           -3.01145389768928        4.81293654781139        1.93664184056807
H           -0.18262362433909        1.71758889214449        2.73069593498004
