72
 energy: 27.660541447237 xtb: 6.6.1 (8d0f1dd)
N           -1.51470231529142        2.75260048949898        2.47795799848631
C           -1.70411611921544        1.84465247084300        1.64792487654483
C           -2.74292875914025        1.89053625528747        0.56397512917338
C           -3.49839837797629        0.59536646327930        0.53083802369102
C           -4.30435412376139        0.15232055973369       -0.51601201517650
C           -4.99152439021032       -1.04313394762312       -0.48122151353245
O           -5.81612762111386       -1.51138108340332       -1.46688370466772
C           -6.09142921432899       -0.69225289325823       -2.58699326806263
C           -4.74909569980937       -1.90641832638078        0.60977552182392
O           -5.40758298693324       -3.10568487198469        0.62125805026506
C           -5.23658328981789       -3.92066650677319        1.75969263956764
C           -3.90580387002333       -1.48691196227982        1.62358109540241
C           -3.29473448937645       -0.25121762259997        1.58704664843334
C           -1.98273013416822        2.21682350820550       -0.76686932078792
C           -1.27323742931695        1.01976495806736       -1.52846812901241
C            0.21463819193998        0.91473482969222       -1.42120201100191
N            0.79726074116135       -0.20326458751009       -0.84967844360443
C            2.16805101265188       -0.19205674879122       -0.41743844013806
C            3.19832462785190       -0.54579986187949       -1.53754492632906
C            4.61498105679848       -0.41857534246538       -1.04562184627554
C            5.33995395244052        0.75554549479160       -1.17327939540280
C            6.61476768777832        0.88374066631663       -0.63385365274457
C            7.20552222978834       -0.16875158824406        0.03914077244392
O            8.44362442378513       -0.14171572829071        0.59474843090677
C            9.18975178757891        1.03633866190776        0.40870621915947
C            6.48293200247219       -1.37031926639280        0.17675685958157
O            7.11189170624651       -2.36479535204616        0.85590189765620
C            6.38385319468416       -3.54062478485998        1.06275334907758
C            5.20953553817281       -1.47780700543727       -0.35800024202963
C            0.16210605193204       -1.49624193282422       -0.88954192119538
C           -3.71009222057886        3.04023232624510        0.88747851475592
C           -4.82935747268819        2.88766886373147        1.93144284667403
C           -2.99977508535026        4.37719561320635        0.90582713735988
H           -4.36044299771042        0.76479101520401       -1.38960432016803
H           -6.56846550362436        0.26092967288165       -2.30805865440816
H           -6.79870461489476       -1.25398473494865       -3.20332648580143
H           -5.18437871281321       -0.49901304745649       -3.16746505196899
H           -5.59253014380248       -3.45299052897348        2.69146424923153
H           -5.83899220347952       -4.81870944630062        1.59159502330647
H           -4.17546739261376       -4.16231880280897        1.86102981731720
H           -3.72525720891569       -2.10520323733657        2.48245214808180
H           -2.64652042807923        0.05820024051251        2.38536290980763
H           -2.70634469130925        2.65404323358104       -1.44242355076506
H           -1.28660306648462        3.03504749647929       -0.56802385907562
H           -1.74910155958699        0.07635988113145       -1.23212331959063
H           -1.49403018736259        1.26260012094544       -2.57943780498683
H           -0.95704964349610        1.11922215946572        1.65205194851216
H            0.86244111309220        1.57462017407057       -1.97922197459273
H            2.28747318460022       -0.89570994660582        0.42550997330543
H            2.43168484812738        0.79978550797617       -0.08230168622760
H            3.04914312196730        0.12612379196498       -2.38607584250407
H            2.98653619138405       -1.56717262744093       -1.85806720383022
H            4.92083941929415        1.60476771080399       -1.68584310364010
H            7.12959738618883        1.82584947548573       -0.72609665613742
H            8.72330812522171        1.89949791420667        0.90500718144361
H            9.30834946853883        1.27373668345369       -0.65301169263234
H           10.16402214617746        0.84727768177979        0.85210703622535
H            7.04302944505763       -4.14680267402383        1.66785134110760
H            5.45487392365267       -3.37224946338606        1.63763421406281
H            6.17542211121123       -4.05391086798820        0.11455550312030
H            4.64905949786933       -2.39502932658376       -0.24592336503895
H           -0.10669033760227       -1.85563565399874       -1.89165603367275
H           -0.73447238872671       -1.49230870986579       -0.31318419648467
H            0.89063291562188       -2.23847378335217       -0.53006505195775
H           -4.37325343474291        3.18018067795250        0.10472853919701
H           -4.37447177125865        2.94777357556551        2.89063391970429
H           -5.37782740065528        1.94405071632188        1.85426891903145
H           -5.58546437611511        3.68415878271179        1.86130738761304
H           -2.10855086797462        4.28114393652884        1.48773050789819
H           -2.75569007538684        4.71961750869282       -0.10012479659706
H           -3.63392594156315        5.10027211442441        1.38323041711618
H           -0.85167511225557        2.61114515711753        3.21255345492716
