72
 energy: 45.621428060762 xtb: 6.6.1 (8d0f1dd)
N           -1.30373485359126        2.57313032977042        2.38552069975223
C           -1.62097606397599        1.69153780191311        1.55493658198666
C           -2.71358145079741        1.81573849242082        0.53846903292299
C           -3.52445217034380        0.55840770040318        0.54288627435680
C           -4.28536354918115        0.10230503534646       -0.53382080664476
C           -5.01379342055772       -1.06141136390335       -0.46474247733459
O           -5.79712727154821       -1.55361249270146       -1.47403720745689
C           -5.99178821026711       -0.75164594287632       -2.61627095099276
C           -4.84693180834021       -1.89216672718418        0.66229408533337
O           -5.52988709379803       -3.07410695657879        0.66480777491888
C           -5.42075518908479       -3.87889049723236        1.80918286648434
C           -4.04795574977841       -1.46305093100850        1.70658605012353
C           -3.41503307811367       -0.23726650475303        1.66059874721551
C           -1.93910012242928        2.16787671213802       -0.74999015925528
C           -1.27369217994474        0.93032506453104       -1.51182996867556
C            0.22239866601674        0.85868362147705       -1.50552222032855
N            0.84160638906423       -0.23376939531028       -0.92928265633494
C            2.21772569846846       -0.21834257282389       -0.51492139678861
C            3.26532889142066       -0.53976103621042       -1.63156595443123
C            4.67445264506499       -0.40851799080047       -1.10939216811159
C            5.39636238793943        0.77088828496518       -1.21396294775843
C            6.65957653876119        0.90265564805539       -0.64861846799451
C            7.24434319982571       -0.14976163529259        0.02964348461430
O            8.47380743372978       -0.11522578352136        0.61071926089910
C            9.21894505910896        1.06665657837707        0.43880451828435
C            6.52446735105398       -1.35665185213751        0.13678382162497
O            7.13683603351224       -2.35237008005019        0.82216000449921
C            6.40011299244097       -3.52041996376789        1.02991380820464
C            5.26234435141883       -1.46924171430737       -0.41991220546721
C            0.22813689506114       -1.53663514906460       -0.95253483857538
C           -3.62351839837141        3.00275653250933        0.99589384075183
C           -4.83346931539672        2.89592692580054        1.99731896639730
C           -2.86644156565226        4.32027158035474        1.00557094837990
H           -4.27665761550541        0.68312300956096       -1.42965053557692
H           -6.45804414084023        0.22293809761084       -2.39832714597727
H           -6.67790537241588       -1.32123619206785       -3.24059838158198
H           -5.05566984560906       -0.58673367097239       -3.15807604848253
H           -5.81835550640873       -3.41413419099964        2.72112151307641
H           -6.02725237460245       -4.76337987073920        1.60865590117712
H           -4.36971348151715       -4.12981299884602        1.96734453072745
H           -3.92607259281806       -2.06084853035170        2.59453649945370
H           -2.82500718395347        0.07743909051390        2.50586574454846
H           -2.64067900252825        2.64596168690027       -1.43732616496199
H           -1.19101689198408        2.92580421085303       -0.46706414814406
H           -1.70333619504894       -0.00718242585910       -1.12163762874650
H           -1.51966943399366        1.08247344079754       -2.57013490387895
H           -1.06231448426427        0.86624425845787        1.77403005061144
H            0.85275151623351        1.45906748370979       -2.16416193370550
H            2.33646462927860       -0.95040621739661        0.30084556990097
H            2.48612787228544        0.76326696955270       -0.15372774087979
H            3.14325837657266        0.14431792143602       -2.47648986913053
H            3.06536878229273       -1.55880717520023       -1.96562364221778
H            4.98467839194745        1.62160529674886       -1.73232248873713
H            7.17492146466484        1.84742764342698       -0.72120460672239
H            8.74840230647945        1.92378468720909        0.94145019781421
H            9.35283565546586        1.30768686711555       -0.61985405662537
H           10.19004005599487        0.88038992207804        0.89208565465409
H            7.05734722642135       -4.11974338186565        1.64323451696515
H            5.46322396643551       -3.34162175588905        1.59367575259513
H            6.20450011953427       -4.04350422584136        0.08260936170861
H            4.70887382250972       -2.39334454844361       -0.32440159007264
H           -0.07688881322158       -1.85803198957231       -1.95476225183951
H           -0.61734020949897       -1.59273241642941       -0.30228182321193
H            1.00858943605351       -2.26018289148722       -0.66839549334327
H           -4.33846894401636        3.21039855762420        0.28473870776183
H           -4.51153089005038        2.95196858471423        3.00277587885255
H           -5.39934830374514        1.96947983483222        1.80591166858588
H           -5.55185514015891        3.70098375468861        1.79291954528931
H           -1.94706992159534        4.16144915024076        1.52877979833722
H           -2.65785063620740        4.68948182268368       -0.00271269163810
H           -3.43690391885242        5.06040257269796        1.54151373022801
H           -0.66399270527830        2.33767946025639        3.11802023028723
