72
 energy: 14.704878689109 xtb: 6.6.1 (8d0f1dd)
N           -1.70002538775226        2.90425116531195        2.50918109781012
C           -1.76346327254426        2.00513312096650        1.64890248982312
C           -2.78161214872033        1.96459437107064        0.53752198887691
C           -3.46476031589180        0.62454631385058        0.48718591985781
C           -4.32199740650185        0.19474829164866       -0.51662594556358
C           -4.95332411383444       -1.03283754938203       -0.49975055854245
O           -5.82603865747786       -1.49307965566898       -1.44758045196279
C           -6.18619035395860       -0.66222730019139       -2.52803992568083
C           -4.64635052871269       -1.91881483886985        0.55289362431364
O           -5.28549600284651       -3.13140481427129        0.55675663850503
C           -5.06183403241878       -3.95849602541695        1.68027188330939
C           -3.76116502991307       -1.50292822951608        1.53030202342852
C           -3.17351774809119       -0.25553588626979        1.49451141323503
C           -2.06537046617852        2.24747297795302       -0.85138054927985
C           -1.27944510790990        1.08818033464345       -1.55438818025204
C            0.16780462312023        0.99012183238705       -1.26167482446135
N            0.74643975618575       -0.15914021192055       -0.73818032591356
C            2.11828151407990       -0.15362838352149       -0.31791371197334
C            3.11901120947856       -0.54716495112758       -1.44692502706081
C            4.54063715881574       -0.42598062164329       -0.98369213317905
C            5.26577387843504        0.74369608897018       -1.13405682798300
C            6.55109696495522        0.86896843134301       -0.62126222223946
C            7.14768532140312       -0.18349350424153        0.04734728488523
O            8.39835150517121       -0.16773602273730        0.57524358302568
C            9.15385627614634        1.00197184936305        0.37996296416521
C            6.42310370475199       -1.38005324080996        0.21486870799571
O            7.06976036654779       -2.37129621934900        0.88660387006222
C            6.36041701040515       -3.56039988543557        1.09077008645537
C            5.14135189760054       -1.48459081549579       -0.29925794754122
C            0.09899691604298       -1.44538730974415       -0.80848895410538
C           -3.79721703075602        3.06479347768032        0.79055011024349
C           -4.79646235747650        2.87349393461861        1.93553795555154
C           -3.13920302343001        4.42724119869836        0.80351669439969
H           -4.44401869664624        0.83048254801764       -1.36959634763762
H           -6.65527096971686        0.26607287855794       -2.17444653538496
H           -6.91520236191510       -1.22546463720159       -3.11975637207167
H           -5.31751182912320       -0.42565521508221       -3.14536085676158
H           -5.37001456911440       -3.48969698036259        2.62953286984928
H           -5.66140265424737       -4.86379201663931        1.56013814959341
H           -3.99672782954769       -4.20308489539572        1.72849045472738
H           -3.52090418609948       -2.14245691962573        2.35094590211339
H           -2.47236670187883        0.04767209248933        2.24715224391558
H           -2.83496925984690        2.57409858170651       -1.54174836253363
H           -1.40848869722957        3.10726651587491       -0.73860254721512
H           -1.78438624364284        0.14431394027975       -1.34688306452117
H           -1.40346242428896        1.36558521869868       -2.62128768448413
H           -0.90603767683295        1.36475707102895        1.44227011323820
H            0.82680426790366        1.72648515508192       -1.69630407435850
H            2.24514854677077       -0.82957141489291        0.54724424786838
H            2.38011851666275        0.85014949924838       -0.01249263745527
H            2.94122714475347        0.11327516514340       -2.29727143863057
H            2.89933360897327       -1.57182775943014       -1.75206869468350
H            4.83772184662074        1.59037853703755       -1.64153353657315
H            7.06901096387939        1.80605388321337       -0.73981821014382
H            8.69598445606972        1.87219421892815        0.87076233163625
H            9.26601544657961        1.23603271572717       -0.68366279437234
H           10.12893341966519        0.80386891960626        0.81724858851276
H            7.02745128748248       -4.17640425687703        1.67696125369290
H            5.44455282673243       -3.40844985282052        1.68334930957752
H            6.12583259364207       -4.05398513701051        0.13836166886356
H            4.57923153917197       -2.39754079834997       -0.17179149404824
H           -0.13926238233399       -1.80717386893098       -1.82060058487764
H           -0.84172810409011       -1.38714830710671       -0.31122098343442
H            0.77011402343487       -2.21427302146157       -0.40036555274637
H           -4.41740385806497        3.12033990961654       -0.04873079235865
H           -4.19750489606158        2.94108209890706        2.83631476151307
H           -5.28307856255756        1.90086169912326        1.89825972747525
H           -5.56087209444445        3.64829454908891        1.95952955160510
H           -2.27414844746622        4.40047311225052        1.43363880210606
H           -2.86301847632967        4.74561338787119       -0.19871600397336
H           -3.83386052017018        5.13208847834257        1.22024473038100
H           -1.00695634734929        2.88703610572246        3.23509200844124
