72
 energy: 2.907324026088 xtb: 6.6.1 (8d0f1dd)
N           -1.77765474405161        2.93623407113097        2.46550116347523
C           -1.71632530084655        2.10780316283427        1.50692223008498
C           -2.77652355822527        2.01262402099545        0.43164745670587
C           -3.41080198409990        0.64080150815920        0.41958191336864
C           -4.33545821182436        0.22443985889101       -0.53478098376889
C           -4.91255935726225       -1.02865954780576       -0.51802963640435
O           -5.83591263492310       -1.49239407765497       -1.41893563526431
C           -6.27801091608947       -0.63950084569814       -2.43783961910357
C           -4.54137513513530       -1.93016040540322        0.49691790667190
O           -5.16200921317095       -3.15122327477574        0.48126603336002
C           -4.89480243482971       -4.01101857954214        1.56508361602582
C           -3.61892942169554       -1.51600907322347        1.43781855471399
C           -3.05428880685743       -0.25484530021979        1.39593472027957
C           -2.13668934872601        2.26563036960449       -0.98926883875456
C           -1.27276111531618        1.13070102414129       -1.60771054266788
C            0.09976711173089        1.06712756826543       -1.07543079910856
N            0.69429050718424       -0.10837708983943       -0.63137975825996
C            2.06906258453523       -0.10718676255065       -0.23089114808257
C            3.03673560388300       -0.54585627543698       -1.36557880312457
C            4.46161436296992       -0.43094740745510       -0.92303117557681
C            5.18467473678822        0.73549311421315       -1.09538977371841
C            6.47999563658301        0.85683314052040       -0.61009727407933
C            7.08220329570824       -0.19555559531253        0.05463076109874
O            8.34611254407438       -0.19022986509762        0.55531445004711
C            9.11568226218015        0.96842687979244        0.35355171730003
C            6.35611280122594       -1.38846734553468        0.24936685774953
O            7.01867656733539       -2.37668125444298        0.91379935871176
C            6.33542201153106       -3.58145848630176        1.12098696579463
C            5.06649904972095       -1.48932284455277       -0.24194992045632
C            0.03545752588084       -1.38665821798765       -0.71761189159970
C           -3.85864345581959        3.06466618831397        0.68673666856883
C           -4.68730618601151        2.83385359733933        1.94298188942321
C           -3.27380623316943        4.46481746793810        0.70096154389797
H           -4.53822562166671        0.87902968014609       -1.36080682147285
H           -6.73085820270638        0.26528647475231       -2.01597276434481
H           -7.03087739125063       -1.20250209149591       -2.99764030225618
H           -5.45558779836355       -0.35708306762619       -3.09819700708561
H           -5.15601777006956       -3.56049402058523        2.53390193515927
H           -5.50014257487000       -4.91240345710362        1.44269825440593
H           -3.82924342423956       -4.26867621353273        1.57315667194146
H           -3.32233960791770       -2.17450038498625        2.22167922429649
H           -2.31584392308896        0.04137560144455        2.11649708766294
H           -2.94604504550164        2.49191381138130       -1.68103433236432
H           -1.52382609622316        3.16094490478790       -0.93931175240983
H           -1.78492212055544        0.18120499075726       -1.47404709038108
H           -1.23618951034535        1.37886041847834       -2.68547948086328
H           -0.82625625659122        1.53489418708700        1.15090853471627
H            0.75841467757705        1.87337494165300       -1.37341563699970
H            2.20132254039049       -0.75751107292656        0.65071945087904
H            2.33654403924079        0.90667753622184        0.04745731751570
H            2.84264290012675        0.09879784343602       -2.22365015378505
H            2.80769706307220       -1.57460267632681       -1.64874850916833
H            4.74635961210271        1.57867572006428       -1.60041733780457
H            7.00398080046528        1.78688637200103       -0.75674566158446
H            8.67078170193419        1.84511081765992        0.84223099750506
H            9.22893033025001        1.19747760915083       -0.71130553946160
H           10.08968451429377        0.75696144187054        0.78817113053589
H            7.01625890132132       -4.21083535737304        1.67750919414954
H            5.43470039941321       -3.44717396146662        1.73243149479706
H            6.07004728966460       -4.06373828462195        0.17084805455310
H            4.50449025729392       -2.39918315787401       -0.10017348589357
H           -0.17825492084982       -1.73240352864115       -1.73975956947921
H           -0.92125576069834       -1.31736512373305       -0.23961916453977
H            0.66200217986780       -2.16870981516408       -0.27976023021264
H           -4.48406967862018        3.00651185245724       -0.17383760132134
H           -3.97570324503395        2.92028754460728        2.76822008894942
H           -5.12368392763955        1.83992053619546        1.93820868784177
H           -5.47478967368010        3.57208401249618        2.05788829418473
H           -2.42988228734610        4.50315390399011        1.36839130058111
H           -2.97138442587969        4.76969846856685       -0.29501400217542
H           -4.01937114206910        5.15462213199383        1.06701551856861
H           -0.99132012311072        2.94582183152183        3.11314826145449
