72
 energy: 33.564118978865 xtb: 6.6.1 (8d0f1dd)
N           -0.00381732992909        1.63484136567459        1.47212075797532
C           -0.52423367980679        0.79914299762519        0.68444923030497
C           -2.97880499496253        1.86514403073781       -0.00177824743241
C           -3.80261509334308        0.66167034286993        0.24611743222191
C           -4.42209756267024       -0.02232710709414       -0.80146879103985
C           -5.19925351089592       -1.13296314006740       -0.54475873131989
O           -5.86256766251672       -1.83813537991261       -1.50469762593837
C           -5.74783207306733       -1.40418764060269       -2.83510420376704
C           -5.37338583650836       -1.61119438996378        0.77818208343621
O           -6.16397718134818       -2.71995647155335        0.88558623211130
C           -6.36120583483605       -3.26942730630777        2.16152669477667
C           -4.75877708169879       -0.94465260429372        1.82753993651247
C           -3.95506305050937        0.16624591266537        1.54768602230478
C           -2.26535771840726        1.97257435786371       -1.34193577033499
C           -1.34281765209799        0.79750850682519       -1.67325481315323
C           -0.13562740564173        0.87590196472001       -0.76122245138168
N            0.88434458689560       -0.12891547232960       -1.13045101397591
C            2.21694289504646        0.04143883384314       -0.57256764099911
C            3.29111281261496       -0.12852480953470       -1.68491595567526
C            4.67735211482197       -0.03142915838255       -1.10638036966245
C            5.40057190178616        1.14447174724083       -1.15327531331988
C            6.66874291409827        1.22635100511755       -0.59073644465222
C            7.23483390468198        0.12518640536141        0.02516100877313
O            8.46646691176976        0.08361418987231        0.60869045638096
C            9.26027332947813        1.23876364207426        0.58555211918163
C            6.50822799105816       -1.08531882987360        0.07534271702259
O            7.14136308907028       -2.11348978058271        0.71028936293966
C            6.48234961280680       -3.35126940957335        0.81532355315686
C            5.25138871027956       -1.14791259034987       -0.49618000084062
C            0.45096513971409       -1.50410729123918       -1.15798517020297
C           -2.91988900024800        2.81428083044646        0.89468821146620
C           -5.57899573886650        3.07891985431271        2.26677929713965
C           -2.17168560407240        3.98129892460555        1.32124848177743
H           -4.28486081658124        0.32143360005033       -1.81284944197114
H           -6.14371806169222       -0.39204291051154       -2.97769056644604
H           -6.34948865255661       -2.10816768549699       -3.40709506632335
H           -4.71101976851511       -1.43324213477261       -3.19374240340158
H           -6.88357976492143       -2.57437278113654        2.82698819466752
H           -6.99882913017355       -4.13699073383103        2.02017741514578
H           -5.41433910136247       -3.57516349909724        2.62140697152692
H           -4.90949540395231       -1.29103423000415        2.84777480260917
H           -3.46204947700881        0.67275575235510        2.37032826498987
H           -3.06424501987491        2.03207974964122       -2.07873865201371
H           -1.71583346408295        2.91024674562398       -1.40580449397147
H           -1.87524560890849       -0.13936556227309       -1.50436633341448
H           -1.00090343117612        0.83283095351129       -2.71853979539495
H           -1.07724341457833       -0.08413025811680        0.98885729572386
H            0.33581609882262        1.86295631650398       -0.84949115986648
H            2.43555505116074       -0.69286531172947        0.22060287124086
H            2.31366612425910        1.03499735389016       -0.12579533681018
H            3.14093606307443        0.63880734580748       -2.44776023421522
H            3.16383714762257       -1.10078613927048       -2.18423822203231
H            4.98195119611388        2.01242413372528       -1.64002145302549
H            7.20408316153904        2.16157066657128       -0.64095136011126
H            8.79049146063710        2.07301097603184        1.11878388639787
H            9.49712117987722        1.54171446852753       -0.43712819432282
H           10.18516916309049        0.96735304159513        1.09106602504803
H            7.16203742040325       -3.99389481102231        1.37394546633162
H            5.53639020981019       -3.25971935347479        1.36027224397662
H            6.29123540444532       -3.79463866474698       -0.16779911790065
H            4.69909142831594       -2.07708738710828       -0.48802941866533
H           -0.38602293724826       -1.62969627267835       -1.84556050618115
H            0.15255369893829       -1.90350189410751       -0.17924291077807
H            1.28107902342074       -2.10362558380397       -1.53927652692419
H           -4.57038679215084        2.95028845989081        1.85786293499100
H           -5.49297792440978        3.13203734328144        3.34298387146124
H           -6.19425039675780        2.23129401210514        1.98566201390629
H           -6.04020190565698        3.98623052141228        1.89756654440857
H           -1.11971044174276        3.67673630233775        1.29227892912175
H           -2.31204964254191        4.83022489326062        0.65813033587276
H           -2.42944897469777        4.33130213876305        2.34427554610759
H           -0.05306136466263        1.51004431120126        2.47675275615577
