72
 energy: 9.170034816852 xtb: 6.6.1 (8d0f1dd)
N           -1.76363175660531        2.94238739962050        2.49384607926767
C           -1.74954721396107        2.06403406986284        1.59646582618938
C           -2.78165841872684        1.98955956620766        0.49107222890177
C           -3.44034189583462        0.63379119445815        0.45401749589113
C           -4.33416229282732        0.21143314184842       -0.52380692703435
C           -4.93525615418909       -1.03068109969651       -0.50941340901156
O           -5.83796462911967       -1.49022496693721       -1.43323614401326
C           -6.23392333718649       -0.64997779706034       -2.48592603482709
C           -4.59428223673413       -1.92458070344499        0.52403833621658
O           -5.22358691310618       -3.14218029027064        0.51885953037796
C           -4.97736265082102       -3.98362540304432        1.62490868548342
C           -3.68961990205018       -1.50924856194908        1.48274961786424
C           -3.11350268615855       -0.25522112774459        1.44417121243103
C           -2.10253929313287        2.25691767757292       -0.91672966555352
C           -1.27564468093319        1.10968047727155       -1.57710817553401
C            0.13754338449821        1.02972482114795       -1.16763297460837
N            0.72092019632383       -0.13469381826245       -0.68168771685669
C            2.09400362126038       -0.13150313485175       -0.27184605129727
C            3.07788095960656       -0.54704588502794       -1.40473076700393
C            4.50125193281352       -0.42893369036906       -0.95323552249619
C            5.22552660046686        0.73903916066819       -1.11457567307168
C            6.51582679963911        0.86255885720026       -0.61531236003185
C            7.11526701831759       -0.18991301598082        0.05128940832954
O            8.37269933746691       -0.17956122030858        0.56523426032867
C            9.13485137416395        0.98483890094341        0.36624777442617
C            6.38990772196266       -1.38448725152806        0.23302372592283
O            7.04469656541173       -2.37431446114434        0.90133361332980
C            6.34723326622502       -3.57078253989229        1.10610804166478
C            5.10432731295433       -1.48732000534311       -0.27034238688895
C            0.06744030712270       -1.41680743960986       -0.76518255332689
C           -3.82862464111453        3.06676161256384        0.73832746426725
C           -4.74789575048129        2.85630208545124        1.93974957575993
C           -3.20605455027846        4.44746412179336        0.75238981130505
H           -4.49354970760033        0.85331308284246       -1.36858720617079
H           -6.69459247086371        0.26672926411176       -2.09721296282197
H           -6.97444631652519       -1.21313384496077       -3.06275910303083
H           -5.38614486192017       -0.39126157776755       -3.12296796477223
H           -5.26141826932149       -3.52176479412618        2.58377411525532
H           -5.57928978989687       -4.88810818484626        1.50926321250314
H           -3.91149654059944       -4.23384829183284        1.65212778764154
H           -3.42004835159474       -2.15852678841950        2.28422436915427
H           -2.39070122918762        0.04471936360104        2.17795885951050
H           -2.89353059490708        2.53176340716764       -1.60904741930221
H           -1.46790412739153        3.13559467639330       -0.83866592920531
H           -1.78460632161542        0.16335130030774       -1.40546899661812
H           -1.32511252652387        1.37304060790334       -2.65285154756499
H           -0.86801199477169        1.46105602171382        1.30679041812629
H            0.79661014410997        1.80328704097141       -1.53615603289590
H            2.22387361115445       -0.79390609987386        0.60248753245382
H            2.35731817543736        0.87789795162347        0.01897203306799
H            2.88953899996342        0.10612478571896       -2.25791219954205
H            2.85351645931002       -1.57365881383225       -1.69958598002282
H            4.79236044108547        1.58425731265288       -1.61996881262991
H            7.03632534813442        1.79646255126729       -0.74771184948046
H            8.68304389480205        1.85850710486333        0.85546484421552
H            9.24643125419675        1.21665128381231       -0.69810182786386
H           10.10971030112036        0.78052691812498        0.80156883555267
H            7.01758144079192       -4.19540512748688        1.67902289094684
H            5.43869156191729       -3.42732878269987        1.70754052925884
H            6.09781428452589       -4.05772945888028        0.15404865996304
H            4.54214608768276       -2.39856368904341       -0.13545624366586
H           -0.15728898336692       -1.77175503538858       -1.78244623993246
H           -0.88619365124923       -1.34606928249338       -0.29187335654466
H            0.71081156497163       -2.19801845331910       -0.34299769790605
H           -4.44600316311468        3.07454977500316       -0.11424241076405
H           -4.08651632336919        2.93105230702988        2.80237878381972
H           -5.20927167399146        1.87239338235607        1.91949103684054
H           -5.52255907596906        3.61420103322569        2.01081664680763
H           -2.35232862198411        4.45590150481705        1.40234457884411
H           -2.91735345980918        4.75780701621871       -0.24717759528807
H           -3.92888191500974        5.14267723069614        1.14239023028669
H           -1.04372972379261        2.98018950447130        3.20013460817427
