72
 energy: 36.408270634989 xtb: 6.6.1 (8d0f1dd)
N           -1.41273854858910        2.66202713888530        2.44095399783706
C           -1.66714823425849        1.76565660018865        1.61028005175970
C           -2.72707660399794        1.85216707515003        0.55607220337780
C           -3.50514017449102        0.57575786817167        0.54237542966363
C           -4.29195915527331        0.12807474693900       -0.52128715237153
C           -5.00337954263309       -1.05038710587088       -0.47107152846394
O           -5.80721496409994       -1.52869213664970       -1.46874958664409
C           -6.03780105461658       -0.71618503308835       -2.59976857246561
C           -4.79802526161734       -1.89862796420574        0.63871561471148
O           -5.46888306955077       -3.08934712113756        0.64515979872037
C           -5.33138265267709       -3.90434868313476        1.78295191082638
C           -3.97786541610570       -1.47487726190413        1.66921298391340
C           -3.35387134929685       -0.24515174308033        1.62906208321585
C           -1.94661572626716        2.20000180774780       -0.74320069194219
C           -1.26785398044424        0.97958841280537       -1.51999676469270
C            0.23045108097261        0.88399117812563       -1.47595645263952
N            0.82311209067019       -0.22028356707584       -0.89416425448446
C            2.19458775344289       -0.20785097575614       -0.46579769648501
C            3.23391781673179       -0.54365428432378       -1.58476405982312
C            4.64711979559140       -0.41386633748362       -1.07778227498102
C            5.37084540412293        0.76292047784859       -1.19381656909552
C            6.63998832734541        0.89267325268506       -0.64146949565579
C            7.22825679271367       -0.16016153266201        0.03312028948183
O            8.46165879534800       -0.12896619847306        0.60124359323690
C            9.20582555898442        1.05182359904960        0.42249276533210
C            6.50684062494455       -1.36427903506068        0.15625740916933
O            7.12687056163453       -2.35978507599639        0.83994492852403
C            6.39363299098006       -3.53073630182840        1.04761879197740
C            5.23846768341398       -1.47367032281906       -0.38908805375648
C            0.19855886687097       -1.51816442142599       -0.92321624295962
C           -3.66852408051992        3.02357248277643        0.94338210393159
C           -4.83105875292711        2.89821412247245        1.96159451331886
C           -2.93168699556175        4.34947960750357        0.95639381156595
H           -4.31670201906260        0.72584389223645       -1.40631456871931
H           -6.51440448603559        0.24958476680022       -2.35743876361781
H           -6.73377502977565       -1.28026170668746       -3.22290065067309
H           -5.11282458211250       -0.53783499128039       -3.15697703615148
H           -5.71058947175680       -3.44298366738060        2.70660079424887
H           -5.93486415273843       -4.79445647726253        1.59211733008616
H           -4.27553000657050       -4.15169519975354        1.91449502867158
H           -3.82993951025583       -2.08038670514958        2.54578319206502
H           -2.73735195612476        0.06932268025340        2.45191509070804
H           -2.64469919501483        2.68199183322623       -1.41918888156029
H           -1.23392967957034        2.99460633810042       -0.49567257269620
H           -1.71962512746045        0.03585016065886       -1.17643102634629
H           -1.50867376923921        1.17776524471496       -2.57472303587854
H           -1.00226634403375        0.98886653822070        1.72910389614645
H            0.86751982681752        1.51224566223402       -2.08618773943977
H            2.30955583766025       -0.92705809628663        0.36327744332632
H            2.46089080562405        0.77779165666030       -0.11500247438020
H            3.10001100479064        0.13244453992268       -2.43348574344916
H            3.02645168769408       -1.56367972114380       -1.91151783292454
H            4.95607058295364        1.61236083655676       -1.71070900393866
H            7.15415983332956        1.83669660961236       -0.72259762558567
H            8.73669435913670        1.91128314644424        0.92247406580845
H            9.33009106726741        1.29228994849102       -0.63756879164163
H           10.17865478526812        0.86497407960877        0.87077656005239
H            7.05058042540708       -4.13222296363225        1.65913105684441
H            5.45919825644803       -3.35596668630421        1.61408848177329
H            6.19283587397891       -4.05121500987987        0.10077893097980
H            4.68102238193125       -2.39427792952273       -0.28696600114182
H           -0.07669736193888       -1.86323517695579       -1.92457698714393
H           -0.67593834702608       -1.54411359498834       -0.31272235519425
H            0.95191536253788       -2.25134239313194       -0.59485715312002
H           -4.35633745745101        3.20307101172923        0.19435523802984
H           -4.44886065728390        2.95355122006813        2.94319602317950
H           -5.39713426486422        1.96272138377067        1.83529006146680
H           -5.57845616915105        3.69325601221344        1.81341714297418
H           -2.02509465496663        4.22145288784701        1.50800366073127
H           -2.70789822946503        4.70315872096677       -0.05233494444852
H           -3.53169586547415        5.08318486898387        1.46378263954726
H           -0.76039137359165        2.46764498625965        3.17246292844447
