72
 energy: 87.583655821837 xtb: 6.6.1 (8d0f1dd)
N           -0.87087851111688        2.16790538441287        2.07979942671713
C           -1.40854776755537        1.39175637738745        1.23032570989474
C           -2.65547192053075        1.70912972941450        0.40146043050110
C           -3.60334020341400        0.53731555679736        0.47386803658297
C           -4.29377089109149        0.02080666139655       -0.61491532605535
C           -5.07586625498677       -1.10299898715989       -0.48042306708122
O           -5.78291546309700       -1.66695235455482       -1.50448834018761
C           -5.82912074104096       -0.94257819934146       -2.70715137447710
C           -5.03802034642330       -1.82230210875558        0.72532499600642
O           -5.76249081008986       -2.97762414235502        0.73362237866842
C           -5.77524481019375       -3.72835891513593        1.91612997915117
C           -4.32500899234952       -1.33155285084169        1.80304582275530
C           -3.64945228906786       -0.13152360327562        1.70136551608592
C           -2.06499250570726        2.01238687924725       -0.95192239292439
C           -1.32226666215800        0.76445031832888       -1.51890402373776
C            0.13462774924956        0.88521629868008       -1.22890546604258
N            0.89615463868847       -0.23708637530951       -0.96703219903894
C            2.29196943215972       -0.20546307076085       -0.65672330335226
C            3.33097215037460       -0.48590141428094       -1.79326712986015
C            4.71740044896814       -0.33032551571309       -1.21205611418096
C            5.42190833651591        0.86667577781284       -1.26447573767208
C            6.67391917239094        1.00067736250746       -0.67108305240440
C            7.24736135153482       -0.06592902919426       -0.00234785983720
O            8.46304081438131       -0.06096652979341        0.62861609896153
C            9.24154587681622        1.10337816780960        0.50234141880027
C            6.53443666631314       -1.28360509893878        0.06142242007480
O            7.14442139154345       -2.27905532284975        0.74976465514737
C            6.42727328849463       -3.46399281753840        0.95056080220013
C            5.29792585088824       -1.41150119343203       -0.54034013130381
C            0.35372856697772       -1.57404344799809       -1.04425897504196
C           -3.44821319760636        2.90457223743811        1.10100320423778
C           -4.96366703948373        2.94389984092169        2.14888632534633
C           -2.63678534251001        4.18060602616430        1.18033392169106
H           -4.16331169075537        0.50457363432915       -1.55583505547618
H           -6.26366753243930        0.06264783951000       -2.60067609514674
H           -6.46872515134910       -1.54259692899180       -3.34577115650295
H           -4.84290598014161       -0.84194328162822       -3.16399428360406
H           -6.24454805334852       -3.21465060276156        2.76216281689627
H           -6.39201922147209       -4.59966144335498        1.70234316705822
H           -4.75177023558228       -4.00117881394452        2.18465139469362
H           -4.31182719863857       -1.87027616108238        2.73593058115760
H           -3.13623789673194        0.22103800883276        2.58706609449467
H           -2.80849545135166        2.35079087415725       -1.67698426832034
H           -1.31533599282194        2.78720747041849       -0.79847678520180
H           -1.73717475825877       -0.15432686372365       -1.11539152267632
H           -1.48515348057204        0.73412255747273       -2.59917619697704
H           -1.15465651317630        0.43881621968923        1.47932255974196
H            0.65443066298412        1.69177357034025       -1.76163623731053
H            2.45776580699354       -0.98631011799522        0.09637008363901
H            2.50860112050844        0.79128978460793       -0.24972220146967
H            3.20544602314323        0.23596225975484       -2.60496922602954
H            3.18108527466355       -1.51252392278389       -2.15763866525706
H            5.01752734830678        1.72485804900860       -1.78133703508830
H            7.19410683128174        1.94441277676179       -0.73528755378001
H            8.77424477677598        1.95664844328616        1.01387502808530
H            9.42156001378608        1.35426116585671       -0.54592597917939
H           10.19890574472029        0.89229420090457        0.97721435497366
H            7.09120852017749       -4.05890013994623        1.56278714657249
H            5.48177091233907       -3.29969402059065        1.50210314889313
H            6.25288305019947       -3.98125269823067       -0.00411423541635
H            4.78073708027333       -2.36537280089116       -0.48919460245037
H           -0.13343051889141       -1.74206591641111       -2.01049761881469
H           -0.35560877288866       -1.77623317193969       -0.25825254077568
H            1.21304955830317       -2.27086812790593       -0.96659769078977
H           -4.35724635343827        3.04606127154352        0.64390037872250
H           -4.80020345762456        2.97434588832051        3.19461635209823
H           -5.61154180421923        2.12616523151011        1.84957023838781
H           -5.51663737017189        3.85717119379607        1.85402710514528
H           -1.66138243927284        3.90532038137589        1.56112735084237
H           -2.49520073318877        4.67568862819766        0.21325163280551
H           -3.08457083291545        4.89250861451459        1.86254788846040
H           -0.26283819957296        1.82588397317653        2.81267786706123
