72
 energy: -2.757110718321 xtb: 6.6.1 (8d0f1dd)
N           -1.68593591607277        2.89405074461281        2.39121436248094
C           -1.65397071171040        2.12782203311189        1.38157098799443
C           -2.76656662785380        2.03347782426865        0.36575111700402
C           -3.37655364339043        0.64660695017866        0.38477414572765
C           -4.32709069447024        0.23640154056153       -0.54830594610991
C           -4.88841329801682       -1.02467560710049       -0.52359318114855
O           -5.83061471279570       -1.49334310102674       -1.39819003942413
C           -6.31952792502712       -0.63074213902513       -2.38659540698134
C           -4.49027901732842       -1.93387640643980        0.47424488006572
O           -5.10278512451336       -3.15748370453787        0.44858278702468
C           -4.81553214433590       -4.04070699646594        1.50514343463068
C           -3.55060129981124       -1.52225098519229        1.39805590245344
C           -2.99574875683225       -0.25435306875087        1.35072459646869
C           -2.16663504692394        2.27770524451233       -1.06453017990574
C           -1.26894938459690        1.15645778876360       -1.64161887120132
C            0.05966028074513        1.09900865814220       -0.99360845996546
N            0.66940165219842       -0.08350657790437       -0.59203037041856
C            2.04505830513649       -0.08232605395110       -0.19742751512671
C            2.99833684011337       -0.54456161170100       -1.33124675976241
C            4.42421771791162       -0.43272627555636       -0.89430839169385
C            5.14567801591521        0.73251979521736       -1.07767637360159
C            6.44600807169616        0.85131281156095       -0.60674612969078
C            7.05086734334368       -0.20071961619482        0.05654820210919
O            8.32055655326417       -0.19937078529037        0.54549015760318
C            9.09811389024886        0.95316307280991        0.34179121098916
C            6.32424284039763       -1.39252165060888        0.26273809841719
O            6.99403015858561       -2.37881139052000        0.92355208057690
C            6.32716970661881       -3.59299506597457        1.13469568063037
C            5.03032124728321       -1.49121003877966       -0.21513400878810
C            0.00440997655423       -1.35793266457468       -0.67075240002667
C           -3.88522773924257        3.05983286223590        0.64644522971387
C           -4.62326544504705        2.81036931251562        1.94799014848289
C           -3.33867955142210        4.47909806857771        0.65405788741728
H           -4.58023844172806        0.90622342474453       -1.34859415373794
H           -6.76794555450001        0.26239302268700       -1.93761225850557
H           -7.08282894532665       -1.19557717029731       -2.92839818665890
H           -5.52552257732159       -0.32568865089331       -3.07265998806513
H           -5.05758034372653       -3.60833229353022        2.48504258557380
H           -5.42557910764353       -4.93587296410352        1.36455332584388
H           -3.75183566404573       -4.30819218622223        1.49503937275714
H           -3.23197963215873       -2.18805533103498        2.16926442758132
H           -2.24872545083201        0.03788013909740        2.06567659644495
H           -2.98953150443927        2.45533755459929       -1.75653936446700
H           -1.57545740427515        3.18874402079652       -1.03913538744596
H           -1.78696849140136        0.20528557219484       -1.55152816045318
H           -1.14396615226732        1.38580166081055       -2.71397719310090
H           -0.77344641159762        1.57996559633362        0.96882460246544
H            0.71749437880919        1.93169193484612       -1.21412059810480
H            2.17784551428438       -0.72322706505051        0.68884145009123
H            2.31977978613429        0.93442511381335        0.07241753014174
H            2.80442930439999        0.09018467737311       -2.19670443875483
H            2.76344554325212       -1.57548079218754       -1.60085010699124
H            4.70212930461870        1.57295942633652       -1.58438795247303
H            6.97398111191960        1.77708099177409       -0.76736861587702
H            8.66091220360338        1.83234382905448        0.83122617208478
H            9.21573117635654        1.17850699650393       -0.72344709711362
H           10.07036919875715        0.73375821288518        0.77752206807371
H            7.02645531669301       -4.22441610850592        1.67076146222225
H            5.43403824535253       -3.46785041127618        1.75692068782121
H            6.04612784837237       -4.07172431261782        0.18751694331856
H            4.46820995153983       -2.39977155573879       -0.06700736336468
H           -0.19593433583699       -1.69500348063101       -1.69804313384872
H           -0.95272801980959       -1.29137251103771       -0.17741838938912
H            0.61581872242271       -2.13460759521756       -0.20513257668687
H           -4.53028165103677        2.94342266655286       -0.21275115635861
H           -3.87715865116195        2.91230207099744        2.74182762464829
H           -5.03893983621187        1.80856600458582        1.95871206501534
H           -5.42279083859231        3.53057187386909        2.09637801400277
H           -2.49978724906493        4.54451912345542        1.33184637951113
H           -3.02759382937077        4.77340070484335       -0.34178082764218
H           -4.10280231031806        5.16753086907005        0.99759409026475
H           -0.86214097772279        2.87435860547337        2.99231023504189
