72
 energy: 53.775114687190 xtb: 6.6.1 (8d0f1dd)
N           -0.14517305952994        1.73791646802136        1.42380374012050
C           -0.69391351223252        0.90646164696612        0.62951853066087
C           -2.91597662178817        1.81304482250882        0.07661968514923
C           -3.74683392716785        0.60895355277331        0.31337596636626
C           -4.37367452037358       -0.03616679727695       -0.75579415012793
C           -5.18261156760666       -1.13134202809608       -0.52581091472078
O           -5.84525837210655       -1.80092001498263       -1.51209824940581
C           -5.71724143604896       -1.28471146213333       -2.81704900774290
C           -5.30750504269658       -1.67985541732273        0.77544521269774
O           -6.08753999495958       -2.79986842824049        0.84155743190164
C           -6.26237231499113       -3.41912599116831        2.09259542069814
C           -4.69742038236204       -1.05819752748332        1.85336069049579
C           -3.94432450920011        0.09865243110299        1.62271500594334
C           -2.26027689279885        1.97278766572467       -1.27752504599606
C           -1.35632502835058        0.81225376935604       -1.69860945329398
C           -0.13577554859577        0.89531713637553       -0.79073301953675
N            0.86559587196405       -0.13574094226117       -1.06729517656949
C            2.25239132144714        0.01254568504157       -0.60774109532461
C            3.29307978186543       -0.19450909239187       -1.75608219464368
C            4.68579301622010       -0.07793958034680       -1.18495327660953
C            5.40514244268275        1.10255022733734       -1.22367423762078
C            6.66779607228741        1.18965164471921       -0.64606875703945
C            7.23143933241750        0.09260028819672       -0.02133692632472
O            8.44710897533183        0.04945145694616        0.59212044032335
C            9.24068824813699        1.20405258456691        0.58457474991032
C            6.50982780539248       -1.12086788682259        0.02160993356668
O            7.13581642046895       -2.14336071572946        0.67530326695776
C            6.46505216752109       -3.37245866945646        0.82914080911565
C            5.26227844625813       -1.19030614863751       -0.56700676691717
C            0.45830029161731       -1.52823947118749       -1.12660926689332
C           -3.04174234685858        2.82131111662840        0.92078620473858
C           -5.48475191789166        3.05485835972336        2.21911054229241
C           -2.27778719598623        3.97957153475279        1.33633701704838
H           -4.26269268701028        0.35020747454793       -1.75388659255051
H           -6.09987691659904       -0.25924094310891       -2.90837687238364
H           -6.31650987902683       -1.95504088594677       -3.42740731740048
H           -4.67855664476902       -1.28824076797519       -3.16916020477070
H           -6.80061927105651       -2.78417912675614        2.80942216724644
H           -6.89287209758060       -4.28600515975886        1.91399546825816
H           -5.29533430601336       -3.72185202270222        2.51137939380488
H           -4.83375915729663       -1.46745642240018        2.85312160561475
H           -3.49447933676917        0.57251902901658        2.49389435633032
H           -3.09216605086949        2.02758990187616       -1.98820846913032
H           -1.67636734078897        2.89707020208118       -1.29013498235620
H           -1.88450970841657       -0.12313597238563       -1.48823914720135
H           -1.12839590847829        0.83729187371397       -2.75775718574013
H           -1.23545042065896        0.04261446027670        0.96873792141386
H            0.41448161518008        1.83985408363047       -0.93264235535258
H            2.53478420971852       -0.69285595527979        0.19258324953505
H            2.36504632092855        1.01617268271671       -0.19570535685538
H            3.13952907837913        0.55993512627010       -2.52745903707933
H            3.16487105910441       -1.18865958763843       -2.22526342595496
H            4.99815192202214        1.97344413950140       -1.71529033014219
H            7.20154856091382        2.12620278951786       -0.69318749181382
H            8.75713289277081        2.04173556658873        1.10657464435033
H            9.49416846090427        1.49233197539462       -0.44045432048497
H           10.15153396697118        0.93667631182914        1.11879064034372
H            7.14001524434255       -3.99002286042972        1.41759593572030
H            5.51334895177353       -3.25426059866867        1.36417213069374
H            6.29415656659693       -3.85097500393214       -0.14382899040236
H            4.72036575819086       -2.12633313288957       -0.56204814910695
H           -0.32342577201415       -1.63886066836561       -1.87459493775528
H            0.07828196346550       -1.92171747410000       -0.17356305413938
H            1.31058706744066       -2.13917857027302       -1.44745203401876
H           -4.45701556549528        2.93259844396299        1.71141474814942
H           -5.32237312406205        3.09539432355157        3.28342098943450
H           -6.07296698719125        2.18619521803909        1.95558073796885
H           -5.93939938119828        3.97752602684206        1.88213911983824
H           -1.24406230398675        3.60087138473058        1.36816159762675
H           -2.34081107373529        4.76958693963367        0.59100635263634
H           -2.58628576931513        4.46852081593268        2.26630654757062
H            0.06746452066076        1.36201901004493        2.33866517900718
