72
 energy: 29.235382055451 xtb: 6.6.1 (8d0f1dd)
N            0.08879686950229        1.63156945225963        1.44952845078589
C           -0.43526605739533        0.78857533136305        0.68179007409060
C           -2.98352854229147        1.87552988445246       -0.03589620380357
C           -3.82358685874170        0.68913675855062        0.21418601599793
C           -4.44847108955781       -0.00919825714120       -0.82208485727371
C           -5.21325331875797       -1.12908191153799       -0.55879985245554
O           -5.86528925683217       -1.86189264063924       -1.50650099268760
C           -5.77128435861765       -1.45857103932625       -2.84612278803741
C           -5.37871864994329       -1.58041094470963        0.77175335156574
O           -6.16518104685575       -2.68880118687323        0.91182155728128
C           -6.39641741014774       -3.19178433720582        2.20079707674136
C           -4.75641514732888       -0.89495229723662        1.80200834447782
C           -3.96649653535920        0.21371121071223        1.51916655153462
C           -2.25882011533712        1.96736249375268       -1.37085086875248
C           -1.33700041948268        0.78165118733692       -1.64303582749314
C           -0.08670149921906        0.87350752949084       -0.78220239881999
N            0.89985059803478       -0.13472600053692       -1.16178790258395
C            2.21465422363053        0.04254583403963       -0.57311142183735
C            3.29229548801125       -0.10729161512834       -1.66068651435752
C            4.67206720693135       -0.01521024557647       -1.07583492614702
C            5.39539066860126        1.16110077911942       -1.11916467188671
C            6.66586196381509        1.24123328081008       -0.56195331942204
C            7.23576329562625        0.13970472825133        0.04907209668944
O            8.47312761765494        0.09877345315051        0.62238613797939
C            9.27211479364489        1.25220374252867        0.58141011136307
C            6.50655434621501       -1.06915666079692        0.10236709850329
O            7.14268605060964       -2.10091290731149        0.72858792412037
C            6.49077164313897       -3.34107958621298        0.81586275797875
C            5.24550371774008       -1.12947039903490       -0.46107073343667
C            0.46577661197139       -1.51231798042505       -1.15607560336404
C           -2.85466624137026        2.79716355641055        0.87880085767456
C           -5.65243776282324        3.09819330804885        2.29760289560568
C           -2.12243842828542        3.98567998535054        1.25956273152696
H           -4.33128737565905        0.33408938381537       -1.83639546575254
H           -6.18142963346367       -0.45422106785861       -3.00815422634535
H           -6.37115366490137       -2.18271130556427       -3.39473078679131
H           -4.73891229928674       -1.49249709650796       -3.21549800066672
H           -6.91009928478249       -2.46330268798805        2.83577188362576
H           -7.04602330677211       -4.05525659516899        2.07286946791469
H           -5.46524201893505       -3.50300849603514        2.68791942101156
H           -4.88458292343128       -1.21221749754139        2.82863702388733
H           -3.46906768588571        0.72069123480051        2.33806845345200
H           -3.02407547467128        2.01357027374857       -2.14687572175654
H           -1.68325389227263        2.89393160581699       -1.37926168275066
H           -1.86778737372279       -0.14712563326366       -1.43753707825242
H           -1.02562028541640        0.79068816983760       -2.69474808637153
H           -1.06433669666906       -0.07124676085057        0.98646658538520
H            0.37800458767842        1.85585658846457       -0.97944438452334
H            2.39840846651065       -0.68674934821767        0.22605960262447
H            2.28984994230759        1.03668205391887       -0.12786817586959
H            3.14536137346807        0.66937927904882       -2.41163690547736
H            3.16935449901915       -1.07302269077552       -2.15663867458771
H            4.97610001786603        2.03068900117425       -1.60218823675421
H            7.20239887985917        2.17581266464174       -0.61318832048665
H            8.81164630497642        2.08537760117355        1.12319193851550
H            9.48718416463460        1.55823219166320       -0.44630461491930
H           10.20477799616692        0.97693430603252        1.07124830046925
H            7.17704471930414       -3.99476088799166        1.35282822176937
H            5.55296380819654       -3.26671550410356        1.37714093815893
H            6.28829184981415       -3.76622099298637       -0.17352049898425
H            4.69169031994109       -2.05612925927678       -0.44862417462965
H           -0.36037651999351       -1.65388979670920       -1.84216214012633
H            0.17594732772687       -1.91841733322495       -0.18236091211550
H            1.29102583485772       -2.10555115293457       -1.52152378054643
H           -4.65689269115692        2.97462405984077        1.87982444678265
H           -5.57458231241589        3.14950680862429        3.37597056553316
H           -6.25922614426859        2.25111991077780        2.00906952765443
H           -6.10421978872457        4.00642643809587        1.91903877547541
H           -1.05487829319811        3.73211293502741        1.26460571554756
H           -2.29605687225747        4.84137714174006        0.60225084212583
H           -2.39156454972712        4.29187497606073        2.27863039568709
H           -0.08338323045775        1.56248026689909        2.45022294932211
