72
 energy: 71.378545891767 xtb: 6.6.1 (8d0f1dd)
N           -0.97734146645930        2.25754000442384        2.17192892254528
C           -1.46819070827136        1.45694316325707        1.32633814468934
C           -2.67419838485514        1.73064999909701        0.44712724941243
C           -3.59190254496813        0.53707059052882        0.50231106676421
C           -4.28688296090182        0.03667544172238       -0.59155578593529
C           -5.05738253120391       -1.09441395298590       -0.47471997373558
O           -5.78300857606113       -1.63899145873568       -1.49694961722219
C           -5.86673327960361       -0.89000840365700       -2.68270813493732
C           -4.98982839517861       -1.84281161384257        0.71313872740666
O           -5.70514640246031       -3.00322281500226        0.71722975253586
C           -5.68764947874202       -3.77199784872892        1.88832668185404
C           -4.25606506651508       -1.37201586102642        1.78556714697333
C           -3.59181138071574       -0.16518578330943        1.70558032293942
C           -2.03066873187408        2.04280740384644       -0.88810554110087
C           -1.31208004478164        0.78841814514380       -1.50151313389909
C            0.16234797111355        0.87286301509318       -1.31893528881176
N            0.88692323172291       -0.25109703726241       -0.96416138956172
C            2.27788240115272       -0.22150127459379       -0.62971562942292
C            3.32281181896284       -0.51602936123865       -1.76012889761280
C            4.71687384252992       -0.36643987995783       -1.20068494283822
C            5.42366092440728        0.82887984886361       -1.26446147889384
C            6.67473471132520        0.96889157325372       -0.67109059749227
C            7.25178787835997       -0.09099657630856        0.00509188420568
O            8.47541616157507       -0.07384713733866        0.62300292219165
C            9.24090662377319        1.09844534983422        0.48367271286751
C            6.53796018317993       -1.30741970177446        0.07785215438032
O            7.14494846246986       -2.30047138350420        0.76994829233121
C            6.42030701562348       -3.47904736063713        0.97249145136598
C            5.29795402196711       -1.43843397150319       -0.51710398814171
C            0.32197571972139       -1.57282262958280       -1.02973155389620
C           -3.50305553572080        2.92659341326960        1.10272146177182
C           -4.90349095380316        2.93698280597733        2.10831361061771
C           -2.69401480442535        4.21601425829082        1.14133282849043
H           -4.18086050010370        0.54893447512553       -1.52154043519588
H           -6.30974050308642        0.10818703000549       -2.54673152537586
H           -6.51877716144681       -1.48128695426634       -3.31757977285937
H           -4.89267906604750       -0.77209766780181       -3.16233895392663
H           -6.14040455520295       -3.27626533463212        2.75392253646309
H           -6.30201998067457       -4.64505968776693        1.67314871361208
H           -4.65651745168536       -4.03972385324116        2.13008515909448
H           -4.21588712858287       -1.92895788769524        2.70516970772019
H           -3.06057246829180        0.16904712235155        2.58860486396527
H           -2.75734447163529        2.41899796442236       -1.61483265670058
H           -1.27181049763035        2.80347305276795       -0.69021611123398
H           -1.69987136667018       -0.14060018261657       -1.08155910404100
H           -1.50288327851476        0.80012229254255       -2.58127782528973
H           -1.15645867711343        0.52555516584694        1.59113484096494
H            0.68863592994037        1.60061113381766       -1.93993337802360
H            2.42292982303336       -0.99109508980800        0.14092356971384
H            2.52291715110254        0.76770679765841       -0.23877977651262
H            3.20387965448724        0.18765763655612       -2.58978546229046
H            3.15734836309373       -1.53679937727427       -2.11388206857800
H            5.01814125720437        1.68412881340798       -1.78416086794229
H            7.19281474373057        1.91356496958397       -0.73817967612173
H            8.77224322657659        1.95033657378649        0.99487686940409
H            9.40668329965516        1.34681356152318       -0.56805347721955
H           10.20394590824130        0.90097921092370        0.95258780468698
H            7.08210787862916       -4.07381703246166        1.58637913024178
H            5.47606443061272       -3.30820463995781        1.52635710687781
H            6.24200798970528       -4.00010075482901        0.02027346838359
H            4.76949092137593       -2.38220751087581       -0.44595775759071
H           -0.11027032938537       -1.77586837848367       -2.02160097694181
H           -0.42533487809468       -1.73645069131901       -0.27335786829088
H            1.16681250569103       -2.27360424294402       -0.89322431690817
H           -4.34892283463197        3.08786259761404        0.54011509437206
H           -4.72204845534700        2.96969578128589        3.15153554702255
H           -5.54930817152266        2.10563573656927        1.82728433930439
H           -5.48056599306986        3.83889921193473        1.82202600299396
H           -1.73054901400437        3.96810494958375        1.55978453191039
H           -2.53172066360333        4.66901875489906        0.15581241220956
H           -3.16416185427753        4.95070983307383        1.78412403095235
H           -0.35545923927324        1.94390869563686        2.89733418385446
