72
 energy: 40.730839785085 xtb: 6.6.1 (8d0f1dd)
N           -0.04830792956395        1.65770139818327        1.42570132494442
C           -0.61795521062793        0.82314512497995        0.65433434043125
C           -2.94723418779158        1.83523377385988        0.03532245958702
C           -3.77599906863053        0.63137154462086        0.28008491152455
C           -4.40013246088084       -0.03160828981540       -0.78025930265571
C           -5.18924361356405       -1.13730192878158       -0.53501760163416
O           -5.85865952020607       -1.82345700205142       -1.50626232441311
C           -5.73222429101358       -1.34626020663805       -2.82365267484216
C           -5.34535813027243       -1.64925334496445        0.77853745259365
O           -6.13432858950234       -2.76226974037393        0.86140709954935
C           -6.31989465979506       -3.34795070458990        2.12572382259249
C           -4.74326575477757       -1.00249711247748        1.84609486251438
C           -3.95453487319305        0.13003490926502        1.58628025175089
C           -2.27555456672099        1.97311988885969       -1.32156240370615
C           -1.35523584951220        0.80803119951105       -1.70573717061054
C           -0.15612657198629        0.87412195990200       -0.78326672410181
N            0.87310361602623       -0.12952135415466       -1.10765423138265
C            2.23412017612153        0.02657067987957       -0.58610288107144
C            3.28953822261217       -0.15995833776451       -1.72178061869086
C            4.68093795754320       -0.05456983836617       -1.14803651825757
C            5.40339881904724        1.12290614437784       -1.18949773165886
C            6.66874075292484        1.20789621145934       -0.61895091737738
C            7.23272326030552        0.10878184168215        0.00202890587486
O            8.45636742223902        0.06729960254945        0.59983553375407
C            9.24843545126762        1.22294835312665        0.58663057089756
C            6.50868477817510       -1.10332582135346        0.04789223547723
O            7.13859560186653       -2.12854416270857        0.69140088748228
C            6.47246376212035       -3.36181020026434        0.81930913851187
C            5.25659683291936       -1.16880959562945       -0.53327413793971
C            0.45009861800061       -1.51045239827158       -1.15333717738686
C           -2.98156577506075        2.81716757521365        0.90559678580693
C           -5.54052654824345        3.07132594791594        2.22854843095359
C           -2.22608677994622        3.97684719919379        1.33704550225572
H           -4.28976944598992        0.33819432338211       -1.78827219000146
H           -6.11824526897139       -0.32627813335298       -2.94149160085565
H           -6.33384735095751       -2.03096532862733       -3.41668529876478
H           -4.69301121393077       -1.36245397259658       -3.17515740864068
H           -6.85062859958470       -2.68451407092553        2.81868595132419
H           -6.94886936472046       -4.21464317073252        1.96416806293341
H           -5.36399639014558       -3.65478172945756        2.56402229242381
H           -4.90126364073917       -1.38524442397754        2.85419684410673
H           -3.48440605601219        0.62775899464691        2.43406316019511
H           -3.10067512458459        2.04170410439287       -2.02288422770567
H           -1.71600319161971        2.90597106916272       -1.36553746083898
H           -1.87293853423736       -0.13394921224004       -1.52600274616683
H           -1.06699021647181        0.84188696819127       -2.76244288928384
H           -1.19382157684111       -0.03923176271061        0.99653284515585
H            0.34396208309762        1.83798522037512       -0.83623112214597
H            2.48391165257263       -0.69890066064807        0.20907312553205
H            2.34818917075538        1.02316117221099       -0.15245528531893
H            3.13495347712629        0.60302749670644       -2.48748164015857
H            3.15785337053090       -1.13850087604861       -2.21636815609701
H            4.98998087875562        1.99212825679538       -1.67836156906545
H            7.20280030864786        2.14407509143796       -0.66654897698620
H            8.77253145703061        2.05888055707819        1.11334102625996
H            9.49662082596030        1.51759810049949       -0.43676790117127
H           10.16698299122305        0.95404563904798        1.10652336861929
H            7.14794161761589       -3.99212175246274        1.39607281024669
H            5.52038892858873       -3.25314087910721        1.35139200102558
H            6.29327225581482       -3.82348439158227       -0.15795157953192
H            4.70889632313337       -2.09990438415979       -0.52967805869851
H           -0.37043382141860       -1.61760674100078       -1.86143406255416
H            0.10771411524740       -1.90630219272659       -0.19003990164445
H            1.28659535612837       -2.12250646982888       -1.48354517972421
H           -4.52328087821236        2.94688743067538        1.77663800692498
H           -5.41255790349439        3.11567039480582        3.30115035321516
H           -6.13845846888475        2.20712219346345        1.96395368892200
H           -5.99856347688874        3.98957832729909        1.88396686572072
H           -1.18465815247027        3.63799075250611        1.32052519258043
H           -2.33329028420200        4.79698175861625        0.63710847832231
H           -2.50490519616221        4.40322658328791        2.31363727008091
H            0.01108127415256        1.41361165251385        2.41387346985047
