72
 energy: 27.856980297126 xtb: 6.6.1 (8d0f1dd)
N            0.16338301729910        1.60918196145192        1.46852088381164
C           -0.37602576724415        0.78779675464232        0.68412641658252
C           -2.93615367808931        1.86044181567308       -0.04819249386027
C           -3.79194385104074        0.68433645910203        0.20480968527444
C           -4.43147606789586       -0.00931522614929       -0.82558633960114
C           -5.20849061427318       -1.12158927253533       -0.56405420488194
O           -5.86340240866406       -1.85822765596994       -1.50801900847472
C           -5.78178894063468       -1.46276673371107       -2.85226177536769
C           -5.36783525558424       -1.57216512889139        0.76491071020348
O           -6.14707623857517       -2.68079638608245        0.91579733627163
C           -6.38834473951118       -3.16576021802893        2.21101214452418
C           -4.74188241819035       -0.87866982726900        1.78646208894713
C           -3.96233564039849        0.23198785477676        1.50728848427419
C           -2.25627291182203        1.95503917191046       -1.41411308469999
C           -1.32165788718574        0.77058248661964       -1.65035000260289
C           -0.06148554466413        0.86245583307693       -0.78584115947900
N            0.91970824285869       -0.14910546016415       -1.17291263426239
C            2.23652736676120        0.02557399378874       -0.58589300065355
C            3.31420364004671       -0.11734605051146       -1.67585027997311
C            4.69045263217059       -0.02040515225398       -1.08899775539240
C            5.40458819492182        1.16102407208076       -1.12049313354136
C            6.67208863055787        1.24200200104352       -0.55856068390320
C            7.24082012215786        0.13963321909672        0.05232213825678
O            8.47758763529798        0.10040021229289        0.62568082232229
C            9.27636025336275        1.25423684311570        0.58119108297418
C            6.51343587318116       -1.07106311171667        0.10343822631134
O            7.14713178979856       -2.10326405144467        0.72984701545528
C            6.49401463301021       -3.34293996938910        0.81740433060211
C            5.25652086196793       -1.13305881228775       -0.46737974530119
C            0.48047937901388       -1.52674369552231       -1.17029778041148
C           -2.77062605247742        2.77091516720144        0.87480385328012
C           -5.69455414513946        3.09927443903081        2.27837716746263
C           -2.06911840560970        3.97703609499261        1.27254791353841
H           -4.33588878004134        0.33899894767351       -1.84094541052401
H           -6.19442313368170       -0.45979716971729       -3.00717694653087
H           -6.38202067552076       -2.18540304968674       -3.40329174631979
H           -4.75170443929241       -1.49281773096277       -3.22503585221288
H           -6.90185068321636       -2.42477967437473        2.83333254966354
H           -7.03401167841316       -4.03304325430028        2.07915293933254
H           -5.46356974048116       -3.47816571664823        2.70846294688194
H           -4.85037194631171       -1.19810930255426        2.81136866897186
H           -3.47490976051007        0.75819959044567        2.31454642483331
H           -3.02666394817099        1.98030691651514       -2.18785750495644
H           -1.69703362346070        2.88958583262130       -1.46849837857690
H           -1.85998581547156       -0.15233088505397       -1.42984516987218
H           -1.01072038916022        0.75064313916537       -2.69736857596333
H           -1.01177064296954       -0.05310864279461        0.99004805401753
H            0.41926319575941        1.83032707991561       -0.97089093402583
H            2.42791831545033       -0.70620175684992        0.21260390867498
H            2.31224043593961        1.01851678916463       -0.13913534008154
H            3.16050128352796        0.66682090287760       -2.41734297305927
H            3.18998479040480       -1.08089621307781       -2.17324141413860
H            4.98113914939413        2.03407717034514       -1.59389471937974
H            7.20679208952424        2.17744759738931       -0.60743364281979
H            8.81940463450983        2.08660875999323        1.12744025072249
H            9.48197364805078        1.56612585944061       -0.44861635474911
H           10.21176179958979        0.97775627047609        1.06586896480675
H            7.18271258880756       -3.99663140853943        1.35103879316334
H            5.55709595247899       -3.27037212330025        1.38057984678812
H            6.29030194608652       -3.76576075953405       -0.17250692901100
H            4.69504872384355       -2.05469642250150       -0.44625774363097
H           -0.35063904232749       -1.65170190753208       -1.86134798445778
H            0.18080918215062       -1.90394270181001       -0.18169601636302
H            1.30209125151490       -2.14435313438642       -1.53017035424644
H           -4.73396785248467        2.97835351163366        1.78150606341525
H           -5.54654605698377        3.14225565041933        3.35000838796753
H           -6.32403322486928        2.25389615628204        2.03403518880958
H           -6.16549440385537        4.01321080618328        1.94091070713607
H           -0.99295460666389        3.78060460074027        1.31194992903714
H           -2.27000277367381        4.80917144091380        0.59256790675862
H           -2.38996561873735        4.28589145963521        2.27123969503131
H           -0.03544266330781        1.47390258068081        2.45864187527208
