72
 energy: -99.238310564017 gnorm: 0.002500501017 xtb: 6.6.1 (8d0f1dd)
N           -1.86886460147671        2.78110065606963        2.23557262728111
C           -1.81558843998816        2.11588477670049        1.18150228048104
C           -2.96430516783855        1.91190002704046        0.23325551338366
C           -3.44634962743483        0.47049728170105        0.31321701193996
C           -4.40113420343183        0.00953668599281       -0.59538320253194
C           -4.88625094887713       -1.28679551213148       -0.54129371649957
O           -5.81736177413509       -1.80583462817849       -1.36517618181375
C           -6.45078422971458       -0.97251992174413       -2.30779236886189
C           -4.39038312252681       -2.17943762715189        0.44879863790349
O           -4.90963507325395       -3.42132940643535        0.41963570970802
C           -4.52811306242356       -4.35039250743125        1.40747564827273
C           -3.44181675804451       -1.71559813107536        1.34652579257503
C           -2.98007083362187       -0.40678132650270        1.28076282442945
C           -2.40444019389638        2.19892153235818       -1.18419764072934
C           -1.45650453010452        1.11119602137833       -1.72154913678109
C           -0.12669721513134        1.10556744565691       -1.07101428491311
N            0.53210496550382        0.02370666072519       -0.68053618691848
C            1.90816014725086        0.11225325713802       -0.25094291240833
C            2.87734994890215       -0.39862059740190       -1.33471900529218
C            4.29636152003702       -0.22858647553934       -0.87024431770149
C            4.95190976282916        0.98856249489318       -1.08257069067276
C            6.22375454216320        1.12113787773549       -0.62029430413644
C            6.93456008174981        0.15209986768933        0.04058085467669
O            8.19045971129740        0.26282270276709        0.48873842719620
C            8.82612911206141        1.49575811879534        0.21818377943285
C            6.26214118027464       -1.09301662560719        0.26136906841942
O            6.98973354567672       -2.02250928879990        0.90731121389194
C            6.43452104679920       -3.29769758807594        1.13288409121689
C            4.95929319327432       -1.24686798823467       -0.19358822413516
C           -0.06532447494340       -1.29033319992009       -0.70977813426306
C           -4.17204320463909        2.85093533810162        0.53027252183717
C           -4.81624173284267        2.52211247451866        1.87488422355145
C           -3.80726077253129        4.33180191512213        0.48059513583222
H           -4.78419390865602        0.67993010992670       -1.34657921412584
H           -6.95202151050911       -0.12907098021963       -1.82366964376013
H           -7.19331537734982       -1.59918734005701       -2.79782739375648
H           -5.74383823024181       -0.60009213868360       -3.05610019560977
H           -4.77107110397723       -3.99045414872690        2.41145919843946
H           -5.10219366921353       -5.25082082569210        1.19821814843807
H           -3.45954693905821       -4.58105220299827        1.34985898960559
H           -3.06215219886488       -2.36377624079772        2.11964255165404
H           -2.26752187780255       -0.07321865759161        2.01934245213463
H           -3.23875369706682        2.29105379321958       -1.87844163601722
H           -1.88005027042272        3.15494429714745       -1.17029362111725
H           -1.94220431439041        0.13908720565443       -1.65614119964751
H           -1.29407658474247        1.33335621495040       -2.78414644750331
H           -0.89070702845760        1.63412723940098        0.80383436846953
H            0.42194661160398        2.03656821099584       -1.05589916486027
H            2.03836026958470       -0.47748659468931        0.66097926968881
H            2.15177078757376        1.15179721933621       -0.02265865336603
H            2.71671820019894        0.17594922785849       -2.24834674100461
H            2.67464967180799       -1.44905076624943       -1.54691459954002
H            4.46145472301888        1.79308614153141       -1.60696957120636
H            5.72856521358654        3.91435782342321       -1.65059182881116
H            8.28470245437400        2.32255257065696        0.68776417941235
H            8.87720364539752        1.67674156241003       -0.85949523932934
H            9.82922148084282        1.42236164003077        0.63274882045883
H            7.21151615032524       -3.87051350322965        1.63444551845739
H            5.55309638758040       -3.24071202601472        1.77920536169272
H            6.17063543378812       -3.79044099281208        0.19237236670343
H            4.44765116087934       -2.18353949390309       -0.03442309261438
H           -0.22184324298688       -1.62986919773161       -1.73571694728748
H           -1.02726591566043       -1.28428914053047       -0.19098915969940
H            0.59344104556317       -1.99434095204292       -0.20804552757578
H           -4.91363539565851        2.66074779188511       -0.25370486458701
H           -4.11508970202957        2.71512652298576        2.68046828385261
H           -5.12675939591404        1.48102520305370        1.91891711681494
H           -5.69286117654231        3.14755554429570        2.02129392517102
H           -3.04651999986370        4.56061638534458        1.22073832771967
H           -3.45388434778663        4.63104833463287       -0.50265969288010
H           -4.68980623854973        4.92310877425064        0.71003079003727
H           -1.02241430434435        2.87743860132478        2.78707455377854
