  25
        -42.09428635
 C          3.0835146219        1.5297179598        0.0220241120
 N          2.2853342433        0.3788774072       -0.0175312084
 C          2.5770975205       -2.1672308312       -0.0085319663
 N          1.3001591074       -2.1408266106       -0.0018100285
 C          0.4376826443       -1.0434973743       -0.0026240819
 C          1.0035093404        0.2520129250       -0.0010741106
 C          0.0565754996        1.4177524103        0.0004541514
 O          0.4449523349        2.5610373120       -0.0015097670
 N         -1.2732250954        1.0846327509       -0.0027864747
 C         -2.2536206082        2.1656805217       -0.0051289746
 C         -1.8154173975       -0.1869241655        0.0015285135
 O         -2.9993713628       -0.3799108022        0.0057914228
 N         -0.9020661075       -1.2537937303        0.0011752388
 C         -1.4637084319       -2.5919819476        0.0029401825
 H          3.5502667502        1.6046847972        1.0100866034
 H          3.8838661147        1.4237312971       -0.7136250051
 H          2.5052417942        2.4403976877       -0.1696854088
 H          3.2099838598       -1.2874675398       -0.0198984631
 H         -1.7242500567        3.1149417356        0.0049325843
 H         -2.8781276229        2.0898270346       -0.8950633298
 H         -2.8939119057        2.0791756413        0.8724187919
 H         -1.1785673798       -3.1362819868        0.9049709123
 H         -1.1708858699       -3.1408888845       -0.8937022716
 H         -2.5492899401       -2.4858932417       -0.0012755354
 H          0.8249838618       -3.0473745482        0.0097902600
