72
 energy: -99.330892513901 gnorm: 0.002281399376 xtb: 6.6.1 (8d0f1dd)
N           -1.83210586968350        3.05031804550274        2.21296524563904
C           -1.91121146227576        2.38726035101503        1.15804143066042
C           -3.18715380534064        2.23616347287281        0.36487496473376
C           -3.55026255048266        0.74344748806586        0.32324403166020
C           -4.40375964869841        0.26335187598821       -0.66705223927057
C           -4.77277651149462       -1.07237917196133       -0.71169891312517
O           -5.57964743625481       -1.62576293511155       -1.63545731780276
C           -6.12349997544743       -0.81795345636172       -2.65283155777049
C           -4.27958360186748       -1.96815782809157        0.27830657967819
O           -4.69001456491821       -3.24488739167662        0.16109246871474
C           -4.30909800315140       -4.18402144192312        1.13990713273967
C           -3.43615550193430       -1.47445790144949        1.26272594883824
C           -3.07309952205287       -0.13396871774578        1.28357813027935
C           -2.88950689535253        2.71050008904470       -0.99950601748883
C           -1.35442206344109        0.02430052348406       -2.23916408178748
C           -0.17801920567589        0.36038811011126       -1.69410678218393
N            0.48943546765118       -0.31247846616188       -0.71645627243969
C            1.85655461508608        0.02738293753112       -0.42738456650618
C            2.86148168993792       -0.65096325272437       -1.38642182422867
C            4.26624234576488       -0.34827263621164       -0.95808197027463
C            4.84393907937878        0.88286156812918       -1.24109242712406
C            6.12307857938097        1.18610642692551       -0.80537823032515
C            6.85924327444326        0.26166791779055       -0.07466551627237
O            8.10101826073232        0.44726849354995        0.40346663018621
C            8.75495854229779        1.67473155741916        0.17601263148812
C            6.28127434231323       -1.00864775095325        0.21120344270963
O            7.06514738305568       -1.84967631249260        0.90936709575793
C            6.59835912545330       -3.14450631194073        1.20803265322289
C            4.99493464546268       -1.28403985544520       -0.22932933597150
C           -0.00511965914898       -1.58165799349719       -0.24996913644015
C           -4.41505874864528        3.01092351116661        0.94271501069171
C           -4.82309348112875        2.51265681749844        2.32297076001157
C           -4.14401202364274        4.51170982194999        0.97773901534607
H           -4.78782107826565        0.94383468751052       -1.40751718833738
H           -6.77587885266860       -0.04153946280725       -2.24304056806042
H           -6.71107926872675       -1.48965077345577       -3.27496141443903
H           -5.33937471580519       -0.35547232309690       -3.25991004079473
H           -4.64129670214207       -3.88113328795140        2.13712353608312
H           -4.80432303254222       -5.11258721113015        0.86167804895067
H           -3.22546832523777       -4.33932750206175        1.14632893606641
H           -3.05962072239582       -2.12733796356846        2.03383937904992
H           -2.43178262585286        0.21783101186982        2.07636641929237
H           -3.68136690034625        3.01358615007408       -1.65687048783277
H           -1.88047344933421        2.81250559668098       -1.34596312127745
H           -1.89549771331012       -0.86495230077042       -1.97814870747255
H           -1.79721508952657        0.65659458337617       -2.98489231911051
H           -1.06382649434239        1.86843976317271        0.68321570425424
H            0.31886699145926        1.26723886217770       -2.01308152334044
H            2.08533221975990       -0.27482011581571        0.59827255646231
H            1.97970279342877        1.11137109432745       -0.49667629230078
H            2.68424251824077       -0.28175622709121       -2.39813678539336
H            2.68970453591441       -1.72775304053707       -1.37731450887106
H            4.29721028606973        1.61482836593098       -1.81568494133365
H            6.54485598896958        2.14901841667402       -1.04302852887947
H            8.20340302973332        2.50955041264508        0.61834208521781
H            8.90163146002870        1.85828836808337       -0.89241003038455
H            9.72379180980097        1.58355987265712        0.66308720569901
H            7.40855904605477       -3.62976331538925        1.74875210196250
H            5.70767082256732       -3.11307561448142        1.84331518620494
H            6.37980282518827       -3.71076026593245        0.29761884737003
H            4.54800838491876       -2.24265936788048       -0.01705104446868
H            0.08849937154432       -2.36148170103931       -1.01189471911320
H           -1.05790465027047       -1.48606550516589        0.01798817079183
H            0.55411097987893       -1.88298562901825        0.63261753108569
H           -5.24176575884880        2.82165084803917        0.24777435427440
H           -4.01508676034293        2.67191799197737        3.03079208556626
H           -5.07742325060727        1.45547014279921        2.30374625877498
H           -5.69375946072789        3.06767030678004        2.66332435408636
H           -3.37378817026972        4.73540297405767        1.70966130149093
H           -3.81521447509318        4.87097248039903        0.00453643698905
H           -5.05047050318398        5.04249335275026        1.25647274449639
H           -0.92650628704389        3.12582826327892        2.66534683665637
