25
 energy: 104.902204809035 xtb: 6.6.1 (8d0f1dd)
C            3.32399518474494        1.19131360686794        0.04641848071448
N            2.37765798112494        0.10460315104763        0.03899412201998
C            2.71759789477261       -1.17715097248168        0.02076484978974
N            1.60730314455364       -1.93457764855808        0.04604604402235
C            0.47084672579271       -1.09274601135467        0.10815496527407
C            1.01794905038626        0.22363879643865        0.07955305812175
C            0.26264401513543        1.48803632329798        0.10133332584668
O            0.80684508952529        2.60036260705278        0.02790344716647
N           -1.02940005589572        1.23455640164958        0.20690598276827
C           -2.01430784738446        2.24216531420543        0.17765033621611
C           -3.68437353872612       -0.91180564980136       -1.34723906731614
O           -4.48813786303068       -0.13044231732628       -1.21444106019931
N           -0.75763540045439       -1.40748355659088        0.12264537025572
C           -1.31080012892085       -2.72237600608178        0.18849125368199
H            3.81163577818545        1.26006785050347        1.02071445532589
H            4.08188001658808        1.03026361844687       -0.71995569988122
H            2.78026338685150        2.12056478327633       -0.14205565340802
H            3.71139640935200       -1.56970864285593       -0.04296695673676
H           -1.61256093363580        3.26573569120361        0.20352989940461
H           -2.62791134440774        2.14947432545612       -0.72823267735185
H           -2.68491197171377        2.09450868043193        1.03164381504648
H           -0.81322897315419       -3.40582345605356        0.88574743126541
H           -1.29486263245694       -3.17376712722685       -0.80936059018905
H           -2.34853874895340       -2.59983472951793        0.50805213702213
H            1.61478541502895       -2.93970496520896        0.05413191423466
