25
 energy: -3.351121873082 xtb: 6.6.1 (8d0f1dd)
C            3.24934943153128        1.18013759261017        0.07855843286609
N            2.30216559172520        0.11058876603822        0.03782546755415
C            2.60301410008257       -1.23662970798849        0.03848238038367
N            1.41135383745044       -1.93107680954314        0.02543384200224
C            0.36970306747184       -1.06220202708425        0.01620932141113
C            0.90771239868301        0.21881610725949        0.03700471546018
C            0.09570036694153        1.36169556672565        0.01865628536560
O            0.48644287604172        2.53547547719136        0.04451437293775
N           -1.30704223473292        1.02116992367399       -0.06288094121800
C           -2.20985932171025        2.15899841558188       -0.01783967061472
C           -1.89712609181522       -0.20932758038320       -0.22565545049944
O           -3.09173673602213       -0.38081343924400       -0.34543395164385
N           -0.98855391037501       -1.29839380630942       -0.05698896398070
C           -1.47043404167137       -2.65696420410509       -0.01117461841899
H            3.73681712648575        1.23142708740723        1.05791607471739
H            4.01833054876829        1.03877806386509       -0.68757503187882
H            2.71066707451364        2.10876236805492       -0.09968822776030
H            3.58804192574897       -1.64530042146543        0.02160932059919
H           -1.63320211881781        3.08270858782314        0.02438829862026
H           -2.82049524744254        2.14877691136671       -0.91496110545085
H           -2.85552420292801        2.08034032066211        0.85562997119088
H           -1.07330670336545       -3.20382970791752        0.85364703439622
H           -1.20832757843068       -3.19745991937648       -0.91904652023153
H           -2.55162087229447       -2.59079063334002        0.06287340189736
H            1.39469934865166       -2.93582159334898        0.01607603900983
