25
 energy: 105.469855142834 xtb: 6.6.1 (8d0f1dd)
C            3.28423850208084        1.17241228488904        0.05165008071538
N            2.31565631819612        0.10242209830557        0.02997371341120
C            2.67243064495498       -1.17115004346833       -0.01008478910133
N            1.58268930356126       -1.94966515998237        0.03436375604319
C            0.41855482394499       -1.12110516312555        0.13354220638751
C            0.95534558289723        0.20211557083529        0.11612132760175
C            0.16985673570081        1.44968520174634        0.10798519015366
O            0.73854570502427        2.55070275312223        0.08776004645860
N           -1.14181152492950        1.22676671884487        0.07017145508584
C           -2.06435703379362        2.29253424329921        0.18700182300166
C           -3.13481368826355       -0.55475273790225       -1.59201705351693
O           -4.20818188947545       -0.28296852987370       -1.38569937342021
N           -0.78335679921405       -1.47308813749404        0.31896057751222
C           -1.32350633548183       -2.77996643678862        0.24353925110141
H            3.77082949525418        1.22109642602528        1.02787842234454
H            4.04594468036601        0.99836270833733       -0.70905358139921
H            2.76535667787580        2.11544215867077       -0.12178566782979
H            3.68531790921037       -1.52902835440933       -0.03172836542949
H           -1.56913772921343        3.25830957043892        0.26566866001205
H           -2.72972692546177        2.27590833112789       -0.68414967510835
H           -2.67959973101772        2.11490834841307        1.07607282763682
H           -0.74408548689470       -3.48947311745066        0.84122498253703
H           -1.38150881135467       -3.14805544320959       -0.78627097856551
H           -2.32704452814273       -2.68484439347072        0.65424913925573
H            1.58176037523261       -2.95660413098370        0.02192472673356
