72
 energy: -99.595892438634 xtb: 6.6.1 (8d0f1dd)
N           -1.60567419978498        3.04143281185056        2.23271987347964
C           -1.56511712338079        2.21585649930989        1.29317325013464
C           -2.68773388734068        1.98121599585899        0.33035414673974
C           -3.15382722204638        0.53842914872645        0.41549100739464
C           -3.94714485557733        0.02508601527126       -0.58235725294375
C           -4.52929837684703       -1.27742682098690       -0.55765637623487
O           -5.24024977327798       -1.59455169840465       -1.53282415451392
C           -7.19125234817680        0.37426342478814       -3.12037774632946
C           -4.17650833406385       -2.08504230514715        0.61800255333999
O           -4.67095423385374       -3.35729143682530        0.65812413509735
C           -4.41888450211485       -4.13785358332004        1.79459491065226
C           -3.37599591293903       -1.54616858074827        1.60492695208055
C           -2.87361011964528       -0.25062187454450        1.52334756085286
C           -2.11899973832066        2.27569306266300       -1.08163885652982
C           -1.23485975581550        1.16527441492043       -1.69294696327901
C            0.10924615802211        1.03629893517514       -1.10235748188330
N            0.64451783522699       -0.07930080752544       -0.61687373709205
C            2.03153221674989       -0.09596756076049       -0.20994069350238
C            2.97772857518335       -0.59225649374476       -1.32367964777406
C            4.40737660598549       -0.47557671518282       -0.87039469797235
C            5.11791889191512        0.69195431207959       -1.07170821393216
C            6.42631436741333        0.81561740222801       -0.62134630271453
C            7.04361765927676       -0.22840785987242        0.04400136117609
O            8.31181682671695       -0.21956587822487        0.52903714804340
C            9.10275040625350        0.92648231745737        0.33513282272628
C            6.32327724533119       -1.42849739617570        0.25882958620318
O            7.00574019744383       -2.39794697506428        0.92172200255551
C            6.37913271971226       -3.63339467431089        1.15437947529910
C            5.02052465853902       -1.53135077035123       -0.19596813645754
C           -0.04158386907904       -1.34803153777671       -0.68604028280495
C           -3.93171797481959        2.88442111636612        0.59208907688228
C           -4.56421554363305        2.59363479499798        1.95322540443530
C           -3.62459353604121        4.37528044189643        0.47911582426332
H           -4.22377592937789        0.62341431141260       -1.44204536029894
H           -7.44416000743314        1.04781485102120       -2.34628422119486
H           -7.83640083719366       -0.42871882459950       -3.35758075941975
H           -6.41831024019387        0.61878946818433       -3.78970704077295
H           -4.82811879591246       -3.68890474086673        2.70629760864066
H           -4.91870028238275       -5.08807131561824        1.62030016106161
H           -3.34912146503197       -4.33259241378795        1.95083021064533
H           -3.13786627294742       -2.11560893302273        2.48895304651410
H           -2.29130699287847        0.13882448362400        2.34270003634389
H           -2.96253672476289        2.43053632410390       -1.75417641042900
H           -1.55253402773321        3.20633881908546       -1.04958208998449
H           -1.77222320085057        0.21979058533850       -1.67711801006328
H           -1.08800124293691        1.44989117602341       -2.74136379597387
H           -0.66785187073731        1.61978834966516        1.04479449675484
H            0.71065815345494        1.92891682115404       -1.00892594174258
H            2.14273111109817       -0.74199105677269        0.66463092644738
H            2.33247074162844        0.91472266016394        0.07239943124226
H            2.81882722692471        0.01911420530638       -2.21378787629618
H            2.74137605226250       -1.62847651599165       -1.56989306513538
H            4.65954554222270        1.51855650262457       -1.59415696904000
H            6.95476072106930        1.73839666428820       -0.79913092968897
H            8.67487344488268        1.80286652033267        0.83299808740374
H            9.24364688755116        1.14459559764283       -0.72870691718516
H           10.06622887942395        0.69382297343497        0.78551296451679
H            7.11983892707186       -4.24117942914099        1.67144908293476
H            5.49463165715537       -3.52576847546622        1.79109758584799
H            6.09692750853709       -4.12778153563255        0.21888017713926
H            4.46482943884087       -2.44399260101528       -0.04341489702774
H           -0.23584324214166       -1.64631295493120       -1.71904185248910
H           -0.99602973471081       -1.28883588493607       -0.15578341079105
H            0.56924533731154       -2.11233811137478       -0.21053600775114
H           -4.66903531433020        2.61963286047149       -0.17542402474610
H           -3.86519552629985        2.82785662151293        2.74824489496581
H           -4.85519796993275        1.55027856609042        2.03493815401840
H           -5.45479125637086        3.20439105134760        2.08128036252949
H           -2.87368470795135        4.65169488538452        1.21054500896356
H           -3.27235376607424        4.64033861652559       -0.51425529195116
H           -4.52702361638569        4.94733805166379        0.68035125976354
H           -0.77130957517430        3.12306507844810        2.80881055966084
