  25
        -42.09428635
 C          3.0814300009        1.5339096901        0.0222368524
 N          2.2848179407        0.3819853696       -0.0173877389
 C          2.5800429244       -2.1637240845       -0.0084189063
 N          1.3030694549       -2.1390563697       -0.0017727165
 C          0.4391015786       -1.0429010637       -0.0026175832
 C          1.0031657576        0.2533775283       -0.0010095171
 C          0.0546473057        1.4178280698        0.0004841018
 O          0.4414690259        2.5616401465       -0.0014352794
 N         -1.2746988237        1.0829002480       -0.0028420344
 C         -2.2565635452        2.1626136986       -0.0052227268
 C         -1.8151615662       -0.1893929568        0.0014167598
 O         -2.9988522248       -0.3839896792        0.0056054490
 N         -0.9003601534       -1.2550193615        0.0010979075
 C         -1.4601821290       -2.5939702058        0.0028041419
 H          3.5480208414        1.6094925989        1.0103285891
 H          3.8819687655        1.4290255650       -0.7133665254
 H          2.5019305231        2.4438057104       -0.1694900004
 H          3.2117331473       -1.2831008869       -0.0197315902
 H         -1.7284851149        3.1125938063        0.0048882162
 H         -2.8809137668        2.0859277100       -0.8951957510
 H         -2.8967889299        2.0752215447        0.8722852192
 H         -1.1743549535       -3.1378989928        0.9048416701
 H         -1.1665597680       -3.1424614677       -0.8938311311
 H         -2.5459066623       -2.4893579356       -0.0014744317
 H          0.8291266912       -3.0462497990        0.0097826271
