72
 energy: -99.188291353210 gnorm: 0.003077528881 xtb: 6.6.1 (8d0f1dd)
N           -1.72356222538149        2.84816138149521        2.20717612305882
C           -1.76785633628362        2.09676831063159        1.21034996476916
C           -2.96169749146138        1.94296836785106        0.30875231952594
C           -3.38802401339565        0.48397269706660        0.28142718029662
C           -4.31167673028552        0.04366821189083       -0.66896741160682
C           -4.76017891327798       -1.26658776424258       -0.68924777717640
O           -5.65781029302399       -1.77100617401663       -1.56184573137482
C           -6.28868668746749       -0.90882849796789       -2.47899877331907
C           -4.26606285097564       -2.19105441239423        0.27015427215843
O           -4.75766801754672       -3.44333877350027        0.17711527034784
C           -4.40281710286328       -4.39180723200456        1.15623789802586
C           -3.34899530079668       -1.74794460964553        1.20946258981878
C           -2.92091792779958       -0.42673897373261        1.21624835762708
C           -2.48674401886868        2.40356651254974       -1.09546138664212
C           -1.58768077144574        1.39778789273478       -1.83644895654512
C           -0.24878746553055        1.24660160307971       -1.22785083344292
N            0.37938050555066        0.09198674136537       -1.04675379966824
C            1.71474568738675        0.06341150162290       -0.49578016571518
C            2.79183703365378        0.00198462154840       -1.59105280303748
C            4.15597003849774       -0.17097900580932       -0.93798822239428
C            4.68646204993517        1.05392357952443       -0.33347599771771
C            5.76614485162422        1.16208405433063        0.45840225431068
C            6.70245336049961        0.09768913121315        0.78785177348753
O            7.37923448700057       -0.61569409914723       -0.18453185083724
C            7.65880977687470        0.03765685356208       -1.40479250471914
C            7.06855536204891       -0.06672172214172        2.07305666419431
O            7.58006926995339       -0.98675977612874        2.80066409339042
C            7.53903075056917       -2.36171935615003        2.39405783944832
C            4.68018394525059       -1.36666340031359       -0.87486041250515
C           -0.21798614099546       -1.17006225766366       -1.41316187254111
C           -4.18871718554987        2.79281956862165        0.75378927938186
C           -4.69069551834812        2.36581181524951        2.13113571926983
C           -3.91853384334616        4.29501712334457        0.74727048701111
H           -4.69976483315409        0.74230343305830       -1.39178797138959
H           -6.81818185428959       -0.09834748459632       -1.96919335139754
H           -7.00710152586293       -1.52743781657531       -3.01322890295493
H           -5.57407154830528       -0.48802471227177       -3.19407038251060
H           -4.68465351746911       -4.05681753176292        2.15885276346890
H           -4.96079195457281       -5.29202345870691        0.90646402014546
H           -3.33085493034994       -4.61272078850316        1.13258739500724
H           -2.97021606146664       -2.42180584782180        1.96065500946876
H           -2.23542812007589       -0.11214927945595        1.98783788337022
H           -3.36315594635967        2.58839881623842       -1.71612047082771
H           -1.95376113362255        3.34912309657515       -0.98905133651663
H           -2.09919688630245        0.43970602672014       -1.91035383200964
H           -1.45367714253409        1.78678949163223       -2.85434917894909
H           -0.90849292890984        1.49977467590220        0.85223938388261
H            0.30836779247561        2.14445517860666       -1.00578740824388
H            1.81122425841464       -0.81534491812626        0.14751771016917
H            1.87122599169848        0.95287721756066        0.11933006392082
H            2.76853209750484        0.91914327787854       -2.18249974691191
H            2.59573759209017       -0.84326405254015       -2.25050010028913
H            4.08897964634799        1.93942547404868       -0.50350019789312
H            5.94126984371255        2.10058817394616        0.96630676517958
H            8.18529298796746        0.97985190266910       -1.23252373292250
H            6.74665938823924        0.22948176432186       -1.97547267398893
H            8.30242975105493       -0.64180918559179       -1.96110304715938
H            7.84553078238163       -2.94956577669432        3.25631401092540
H            6.52942963393104       -2.63721312923113        2.08304364142474
H            8.22902985561080       -2.51508026818025        1.56245711323977
H            5.52912554128348       -1.92426562568530       -0.57122816631513
H           -0.49752971117934       -1.17906768985317       -2.46771753836297
H           -1.11061258180256       -1.36218338474521       -0.81106940695622
H            0.49736427188081       -1.96948690239857       -1.23966401902966
H           -4.98457778674494        2.58725257661042        0.02838100385700
H           -3.94101299910414        2.58360162677438        2.88514179111016
H           -4.91890249536024        1.30288469703884        2.15474545076861
H           -5.59584814296305        2.91516851632844        2.37568586451869
H           -3.09652390259504        4.53158425758455        1.41534232936012
H           -3.69054387650759        4.66336568143179       -0.24931897070488
H           -4.80456301797150        4.81666547748423        1.09944009993566
H           -0.85199922427400        2.89833210031429        2.72552939127864
