  25
        -42.14118048
 C          3.2903654973        0.5589536230       -0.0261834419
 N          2.2699248410       -0.2913004300       -0.0112424929
 C          2.3166815112       -1.6462843401       -0.0213357575
 N          1.0490387639       -2.1548488938       -0.0134382173
 C          0.1753966688       -1.1153818371        0.0008795680
 C          0.9202514651        0.0576382004        0.0061266795
 C          0.3001528245        1.3554483085        0.0021420951
 O          0.8722815743        2.4234979173        0.0043637621
 N         -1.0987449722        1.2527457896       -0.0054336862
 C         -1.8609099545        2.4902652660       -0.0237051118
 C         -1.8600233765        0.0994289144       -0.0104481152
 O         -3.0627364431        0.1260549147       -0.0223311740
 N         -1.1709574068       -1.1294360138       -0.0025549101
 C         -1.9321625413       -2.3610483743       -0.0052520208
 H          5.2653876622        1.6708847360        1.9021468322
 H          4.2955729831        0.1813022235       -0.0532320287
 H          3.0807403478        1.6127078233       -0.0286959268
 H          3.2101432720       -2.2336387217       -0.0322171793
 H         -1.1607708010        3.3220455263        0.0244350434
 H         -2.4532767776        2.5488595906       -0.9382716174
 H         -2.5442735041        2.5184037919        0.8260038197
 H         -1.7274459129       -2.9393636241        0.8966772721
 H         -1.6982862533       -2.9537445079       -0.8905537241
 H         -2.9889393753       -2.0950355666       -0.0254336181
 H          0.8263181180       -3.1386789287       -0.0148825470
