25
 energy: 55.302803800431 xtb: 6.6.1 (8d0f1dd)
C            3.45184003823320        0.93074003905751        0.17480405034047
N            2.49128756789192       -0.12858786909317        0.02828940069146
C            2.80431456212731       -1.40939862878840       -0.12088938746765
N            1.66727357974209       -2.14972666707290       -0.14290969034270
C            0.60213957247061       -1.27919244773121       -0.00908890167759
C            1.13841842049383       -0.00334848117992        0.08420636566633
C            0.24558220211592        1.17687586238714        0.22875478699771
O            0.71553404969158        2.29848349587558        0.33541650173589
N           -1.05525115677312        0.86545670567386        0.25561736886709
C           -3.42596312380603        3.34463043524702       -0.41219298147086
C           -1.62376029851863       -0.29943234647786        0.21661784215537
O           -2.77381917499682       -0.62358578580936        0.30788345502827
N           -0.69209125235473       -1.52033061240425        0.02198052475835
C           -1.22489263256975       -2.84854140111729        0.01047027320324
H            3.98617632333907        0.82976633268695        1.11329418146038
H            4.17207313958439        0.88414096008319       -0.64098695752796
H            2.94291587677453        1.89369979940992        0.17447316403095
H            3.78686525283461       -1.80569826872377       -0.23977378313846
H           -2.65135971218138        4.07060526794404       -0.38904664590712
H           -3.77791508302774        2.96982363417458       -1.34315575917820
H           -3.91751400138104        3.06539029150602        0.48696977530925
H           -0.82632777964816       -3.42269153508954        0.85162199578503
H           -0.96419185097576       -3.34014746327443       -0.92782369349659
H           -2.30816417401228       -2.79229631589683        0.11422626985046
H            1.64653174748432       -3.15784272918556       -0.22835764288924
