  25
        -42.15183975
 C          3.2034000159        0.9605836832        0.0375988399
 N          3.3642583471       -0.3895828011        0.0093737961
 C          2.6279775038       -1.3963690587       -0.0116278606
 N          1.2475610013       -1.5587820089       -0.0176649064
 C          0.1450749423       -0.7552721274       -0.0038523566
 C         -0.0882716547        0.6417917160       -0.0028827299
 C          0.7268797476        1.7520673309       -0.0079557003
 O          0.6796114102        2.9309523667       -0.0396320955
 N         -1.4832910857        0.8184469995        0.0033022866
 C         -2.2251565575        2.0524899101        0.0069712103
 C         -2.1056018807       -0.3955192089        0.0072420626
 O         -3.2768613850       -0.6382427510        0.0152603765
 N         -1.0693072931       -1.3546948389        0.0016018298
 C         -1.3725195776       -2.7622229159        0.0021968878
 H          3.6307901322        1.3910206296        0.9467758966
 H          3.6578011376        1.4309761653       -0.8384648104
 H          2.0645516447        1.2965609587        0.0278947144
 H          3.1352750593       -2.3521941684       -0.0297028273
 H         -1.5533888335        2.9062257843        0.0249643384
 H         -2.8525376950        2.1033953761       -0.8844807375
 H         -2.8748168367        2.0817205047        0.8830741088
 H         -0.9799904236       -3.2546957586        0.8936317147
 H         -1.0005466922       -3.2509616724       -0.9001528289
 H         -2.4606121653       -2.8422646212        0.0139520854
 H          0.9799838640       -2.5381325997       -0.0335251270
