25
 energy: 0.000000000000 xtb: 6.6.1 (8d0f1dd)
C            3.23720163006194        1.16630919979326        0.08434469647475
N            2.29877817382611        0.07527477071623        0.03981603040599
C            2.58028210190900       -1.21425402444508        0.03006176031096
N            1.43813958087363       -1.93419271955128        0.00098261760884
C            0.39035688448383       -1.05887472636071       -0.00790371836672
C            0.93510056364412        0.21347819449412        0.01709077491437
C            0.09450143893243        1.40504303904423       -0.00410947031874
O            0.49712751527797        2.54126714362870       -0.00342325688240
N           -1.25076640035757        1.06271879480407       -0.03085478223738
C           -2.21907211982101        2.15522099834493       -0.05001256985998
C           -1.81739487048744       -0.20012725993278       -0.04692818574614
O           -2.99983886758376       -0.37846417018721       -0.07008878229737
N           -0.92618586207120       -1.30210215599479       -0.03682761578324
C           -1.46982264913417       -2.64643102187190       -0.06029820460571
H            3.71247264356769        1.21471455160235        1.06488849150277
H            4.00791497605742        1.03430808813993       -0.67357694370751
H            2.69910007168542        2.09770118228144       -0.09130154882931
H            3.56654120610678       -1.63682992603973        0.04233140067262
H           -1.67107961066214        3.09322851271934       -0.02552706933167
H           -2.82428953597071        2.09428624779827       -0.95318082946668
H           -2.87644029173232        2.07745725625962        0.81450067533302
H           -1.17061996399332       -3.19584890659852        0.83242232437030
H           -1.14560257411436       -3.17511610292205       -0.95688275822323
H           -2.55549792440841       -2.55659984320617       -0.07459039797972
H            1.38130855184625       -2.94313852034425       -0.01389874181052
25
 energy: -3.779686150722 xtb: 6.6.1 (8d0f1dd)
C            3.24845277324087        1.17816901504858        0.08106606640680
N            2.30713653527217        0.09875857402224        0.03930425238668
C            2.60155187288860       -1.22661810007807        0.03090248934118
N            1.43002486689121       -1.93697574287670        0.01154412516317
C            0.38806836546417       -1.05735889960696       -0.00067350113699
C            0.92688134684221        0.21959054121193        0.02105747897757
C            0.09643547527989        1.38807948111566        0.00659818029388
O            0.50372759866375        2.55163729177631        0.01625159986485
N           -1.27347806599130        1.04257523813774       -0.04515008987689
C           -2.20970350366486        2.15891651347903       -0.02782035214651
C           -1.87227077657222       -0.21090195902996       -0.14438144238975
O           -3.07559267766585       -0.37594606127771       -0.22044687058222
N           -0.95128945080051       -1.30338432725332       -0.04255636227812
C           -1.46460488718487       -2.65352262609415       -0.03339514124924
H            3.73097774335813        1.22634460487924        1.06108154432792
H            4.01638690613188        1.03776365693691       -0.68181409154182
H            2.70800865273933        2.10549000830407       -0.09718056962896
H            3.58363744943795       -1.64654216376644        0.03310128745256
H           -1.64674266510681        3.09101085612343        0.01171137186775
H           -2.81553749919672        2.12076801208507       -0.93040199587196
H           -2.86009677171125        2.07704324853394        0.84213013969978
H           -1.12438861295011       -3.20433863564202        0.84727753192593
H           -1.16166328024194       -3.18065652008113       -0.93864997668933
H           -2.54859241216926       -2.56955048279565       -0.00652385184758
H            1.37488568498176       -2.94132292098004       -0.00599792632142
25
 energy: 4.605432198155 xtb: 6.6.1 (8d0f1dd)
C            3.26317281236292        1.18848273443670        0.07472116636312
N            2.31185573774815        0.12533554633747        0.03880267250357
C            2.61921205440931       -1.23673216829105        0.03397111110225
N            1.41614588116621       -1.93301797923695        0.02678675788137
C            0.37987728097005       -1.05434480839368        0.01512766980163
C            0.91359922724691        0.22621952535292        0.03097308089549
C            0.09654549081131        1.35958027459065        0.02288937993467
O            0.50024170938336        2.54542367785742        0.04695414839355
N           -1.30832813921864        1.01392406879806       -0.06427906981007
C           -2.19416536268604        2.16880831406356        0.00926349590059
C           -1.95195594693546       -0.22768199661337       -0.30008733471931
O           -3.16467256397609       -0.37052150087745       -0.50702111848982
N           -0.98704804446282       -1.30148084796843       -0.04777973011199
C           -1.45317757117424       -2.66413319114526        0.01220218288772
H            3.75896168178908        1.24143209204826        1.05140320205801
H            4.02867787578508        1.03968103064359       -0.69336720830601
H            2.72747632343949        2.11668017669231       -0.10605168558474
H            3.59843230390468       -1.64917901782295        0.01897171791219
H           -1.60733274968410        3.08964747579960        0.07319320233326
H           -2.80876663867789        2.17398459794273       -0.88709661342543
H           -2.82876311102399        2.08157125141609        0.89162544059931
H           -1.03283827612884       -3.21541255910337        0.86758487081608
H           -1.20384852755981       -3.19430104547288       -0.91105284698229
H           -2.53590648639588       -2.59995625745259        0.12359476986241
H            1.37481970684350       -2.93498079142944        0.00570463433174
25
 energy: 18.584061047265 xtb: 6.6.1 (8d0f1dd)
C            3.27320229706967        1.19163681509127        0.07379188861281
N            2.31000327624226        0.13855091486299        0.04249975090103
C            2.62127420747923       -1.23982822823372        0.04344007745476
N            1.40568391121049       -1.92828100352428        0.03543597601737
C            0.36810054349538       -1.05397920351090        0.01298631750639
C            0.90364643315996        0.22729699592697        0.03409209964152
C            0.08708385397256        1.34400614523326        0.02307598666806
O            0.48485736292275        2.53711627283529        0.07201143966391
N           -1.34141779866202        0.99444922471800       -0.09643033092955
C           -2.18335769997443        2.18036035708965        0.04494539003171
C           -2.01155220534422       -0.23976889060523       -0.45734441038639
O           -3.21190888379929       -0.36579594334821       -0.76255913499487
N           -1.01569621014142       -1.29848386541880       -0.07223713939397
C           -1.44205362524946       -2.67411007624868        0.05485431655646
H            3.77848164075150        1.25004539112054        1.04709717990770
H            4.03866427033673        1.03546225740843       -0.69513376230336
H            2.75019927016006        2.12670656832139       -0.11049289370311
H            3.60304051482061       -1.64446909698668        0.01445253787445
H           -1.57021828530773        3.08598407403491        0.13457092755400
H           -2.81174462444388        2.23916210693063       -0.84016149512398
H           -2.79501263079061        2.08474134495321        0.94411966576898
H           -0.93027220918194       -3.21327357220741        0.88111264044710
H           -1.26296545613493       -3.21611044695659       -0.88349719511891
H           -2.51958948355612       -2.64105381275149        0.26904726459233
H            1.38376619890114       -2.93133572656266        0.01735679890290
25
 energy: 26.400870688957 xtb: 6.6.1 (8d0f1dd)
C            3.27650296789274        1.18872015084566        0.08159575634117
N            2.30316860846752        0.13976733698577        0.05050157894554
C            2.61171471634612       -1.23559227163667        0.05800843870806
N            1.40102342607395       -1.92433657479055        0.03136005703306
C            0.35598927417181       -1.05580687453860       -0.00983812248187
C            0.89791121615419        0.22363878447008        0.02699966070510
C            0.07298556678462        1.34092820538436        0.00310746982658
O            0.46838978248826        2.52682734553507        0.07648231474111
N           -1.36623218964562        0.98589993784476       -0.13666379952968
C           -2.17866749322622        2.18714027652118        0.06966184718497
C           -2.04461936313837       -0.24482827690368       -0.56881951676519
O           -3.21688569480439       -0.35878481727891       -0.92161993779713
N           -1.03292576997372       -1.29621042578002       -0.11118114380520
C           -1.43290166346222       -2.67908909624828        0.08431365413797
H            3.78344547143095        1.24950390723061        1.05377204319245
H            4.04453868496406        1.02603893495219       -0.68378668747617
H            2.76895519650672        2.13250893709291       -0.10696515148265
H            3.59897236983758       -1.63299276914280        0.02078173831556
H           -1.54525781070823        3.07828900097695        0.17815293136490
H           -2.82491760352295        2.29789726346822       -0.79698516473563
H           -2.76270685565665        2.08060817455233        0.98760423163353
H           -0.84559093213166       -3.19689176005760        0.87901409563813
H           -1.32664241564966       -3.24146064690370       -0.85733837848064
H           -2.49351182621517       -2.67275229901331        0.39525977621884
H            1.39947700495261       -2.92999384139409        0.02361620471452
25
 energy: 26.341911160696 xtb: 6.6.1 (8d0f1dd)
C            3.27291315856540        1.18232136065551        0.09052003740284
N            2.29315439444396        0.13314960616297        0.05938818954025
C            2.59523589546657       -1.22504021917196        0.07227157822386
N            1.40102699899480       -1.92120297601968        0.01919354936385
C            0.34586194439575       -1.05862664157130       -0.03161444040167
C            0.89478416887543        0.21804069679130        0.01939856859552
C            0.06171835229643        1.34483455825117       -0.01729078669852
O            0.45888679756442        2.51481956559976        0.06522908859254
N           -1.37654080355401        0.98688322415580       -0.16234043231916
C           -2.17818830884906        2.18478443626147        0.08135793416188
C           -2.05076688271254       -0.24355797416146       -0.60347250062718
O           -3.19134287481834       -0.34939631923505       -1.02442640511401
N           -1.03693506638703       -1.29674514263449       -0.13837768864246
C           -1.42810485322827       -2.67677831228386        0.10062327943969
H            3.77667369152297        1.24178764713827        1.06321093363054
H            4.04317067491992        1.01416033414831       -0.67063999340334
H            2.77789916573883        2.13279486487680       -0.10105386503031
H            3.58825762680282       -1.61707135647984        0.02540223975847
H           -1.53587926987502        3.06632783328411        0.19549456612668
H           -2.84186739593844        2.33179330342359       -0.76181897862142
H           -2.73802234430134        2.06873204040568        1.01381501053044
H           -0.79666298749366       -3.17637950322928        0.86005280683023
H           -1.38103726165439       -3.25817123308001       -0.83127048915854
H           -2.45877628271741       -2.67934354747807        0.48005421928708
H            1.41675612987846       -2.92908764363786        0.02332747468009
25
 energy: 22.759505002409 xtb: 6.6.1 (8d0f1dd)
C            3.26592403778863        1.17724202549949        0.09848376002597
N            2.28491704676553        0.12723433764277        0.06542648190131
C            2.58242350367678       -1.21603228113346        0.08546081320897
N            1.40118795895063       -1.92012757338318        0.00649504764854
C            0.34064095177895       -1.05979472098138       -0.04920042955563
C            0.89165099959571        0.21539217531330        0.00831500050869
C            0.05835303321484        1.34800784836894       -0.03358339722682
O            0.45751915301832        2.50982850684925        0.06078124209338
N           -1.37302698326832        0.99190615129826       -0.17721192097444
C           -2.17948889995874        2.17860725150773        0.08253058867748
C           -2.03741225923534       -0.23930819568883       -0.60369850419267
O           -3.15223176367124       -0.34211908382892       -1.05720245898908
N           -1.03207529636555       -1.30007423713312       -0.15794211373371
C           -1.42976402684416       -2.67226392224166        0.10585177009101
H            3.76283670737890        1.23367676357495        1.07397749562895
H            4.03856453813370        1.00439980442603       -0.65839878185039
H            2.77531489383794        2.12864848781247       -0.09627676566675
H            3.57707379020330       -1.60705629327657        0.03040467691094
H           -1.53777141553048        3.05878040254731        0.19394773044986
H           -2.85522010298383        2.34015193511477       -0.74387153149216
H           -2.72750929727025        2.05443709967927        1.02000149796138
H           -0.75963292070407       -3.16305867306206        0.83305274057428
H           -1.42825731343260       -3.26139646093636       -0.81960470863176
H           -2.43559853157301       -2.67014383083192        0.53850241839347
H            1.42379686443064       -2.92790891496522        0.02079324438655
25
 energy: 21.247761636750 xtb: 6.6.1 (8d0f1dd)
C            3.26172565956768        1.17624558694196        0.09965100229705
N            2.28196695497734        0.12630335274483        0.06767927946956
C            2.57888205605525       -1.21314350003370        0.09537345712122
N            1.40113795514921       -1.92054524081933        0.00110389160849
C            0.34032090020108       -1.05959172148417       -0.05160427131363
C            0.88935761214830        0.21604572788931        0.00392237448873
C            0.05888004476073        1.34849027094698       -0.03258146222885
O            0.45785392918139        2.51154189105943        0.06588444351676
N           -1.36691654804395        0.99480268722355       -0.17838333470445
C           -2.18059754079788        2.17384242583704        0.08274672482575
C           -2.02460573855857       -0.23664269256638       -0.59665574790502
O           -3.12878889857480       -0.33936605443433       -1.10015917042559
N           -1.02668757332422       -1.30329809023185       -0.16469834037016
C           -1.43226164304971       -2.66937245955942        0.11027594920547
H            3.75516220612145        1.23155860744889        1.07681903933384
H            4.03495680040095        1.00030697062469       -0.65564899667411
H            2.77012389689122        2.12594466907564       -0.09690573664842
H            3.57245632795514       -1.60550167560503        0.02784631000238
H           -1.54069217242755        3.05608226568460        0.19129724435420
H           -2.86347694869009        2.33707869682290       -0.73652670755518
H           -2.72399130936117        2.04494779458022        1.02173509762382
H           -0.74246964761183       -3.16076539308931        0.81321058001271
H           -1.46355647035059       -3.26089477097249       -0.81176319119382
H           -2.42011272371142       -2.65772591247792        0.57512030525831
H            1.42354753902832       -2.92731483343422        0.01929515604827
25
 energy: 19.299763556430 xtb: 6.6.1 (8d0f1dd)
C            3.25909255698262        1.17674085636594        0.10145855815342
N            2.28120474367168        0.12660534391942        0.06895361383655
C            2.57901833823867       -1.21315888980485        0.10575830371923
N            1.40079809568859       -1.92130942419792       -0.00127985260568
C            0.34175263365943       -1.05880173173866       -0.05586358416631
C            0.88797639822571        0.21746314062285       -0.00246907380344
C            0.05933796698517        1.34765913132650       -0.03286119166597
O            0.45701678283170        2.51409071466041        0.07319747560289
N           -1.36115620363711        0.99704948264781       -0.18365847430752
C           -2.18222113608504        2.17137220295287        0.08166888355168
C           -2.01226394759342       -0.23458566842450       -0.60462629173524
O           -3.10682904292922       -0.33933335817902       -1.09835005401588
N           -1.02157343857735       -1.30619655878592       -0.17687556052050
C           -1.43560314451580       -2.66772923713066        0.11214186705103
H            3.74977943420475        1.23240610149696        1.08006853992122
H            4.03369089858802        0.99992764327973       -0.65204196862435
H            2.76518041693844        2.12449069134180       -0.09656731768111
H            3.57046902353747       -1.60799146678379        0.02554392748434
H           -1.54451440701749        3.05671950990942        0.18926081169369
H           -2.86871721299963        2.33148320707646       -0.73605488873289
H           -2.72396095906506        2.03739187335141        1.02064637016343
H           -0.73332215637240       -3.16191661554737        0.79627391746854
H           -1.49291064828788       -3.26000304350116       -0.80648762323321
H           -2.40933216885714       -2.64615230101756        0.59901338734565
H            1.41930184432156       -2.92719300166824        0.02018412124774
25
 energy: 19.164761823565 xtb: 6.6.1 (8d0f1dd)
C            3.26012592864034        1.17803655837378        0.10110416725378
N            2.28321515575114        0.12755967882632        0.06949499893129
C            2.58233132842970       -1.21569900562794        0.11096877316269
N            1.40088176957146       -1.92170931238235        0.00146304458454
C            0.34369178305741       -1.05842480475515       -0.05290506299470
C            0.88891869569614        0.21814957294401       -0.00061709571253
C            0.05931158021061        1.34643005500773       -0.02618590634834
O            0.45588043838863        2.51470485318354        0.07596232757837
N           -1.35997843892340        0.99684026523197       -0.18031406893900
C           -2.18319788429582        2.17122963284419        0.08025386189602
C           -2.00976053952055       -0.23427965238891       -0.60535070371495
O           -3.10561302376493       -0.34038572264302       -1.10004688846409
N           -1.02069545460764       -1.30661491907550       -0.17967114729549
C           -1.43784675109781       -2.66697072810721        0.11087091778912
H            3.75222279302025        1.23542682346874        1.07909652748617
H            4.03456011335253        1.00279942084893       -0.65300342941986
H            2.76443229805320        2.12523139769036       -0.09646528937590
H            3.57227535199380       -1.61163647968425        0.01875157274522
H           -1.54715995322981        3.05819838689617        0.18643224905087
H           -2.86727415839932        2.32353296557755       -0.74094385222799
H           -2.72638570426922        2.03836976914776        1.01836989999948
H           -0.72882844136593       -3.16706807647866        0.78680266065040
H           -1.50645798514777       -3.25503978360370       -0.80904113996579
H           -2.40819695738094       -2.64200096472920        0.60964289976897
H            1.41576272377422       -2.92765132839329        0.02236457970905
25
 energy: 18.819189843661 xtb: 6.6.1 (8d0f1dd)
C            3.26219070761689        1.18018112234633        0.10023291277314
N            2.28690963911270        0.12846605709129        0.07125554049033
C            2.58795211386912       -1.21931678855589        0.12132844512842
N            1.40214807014946       -1.92197318879688        0.00748876500207
C            0.34737510360773       -1.05826154942551       -0.04629273801575
C            0.89170637957326        0.21842408477379        0.00385161687227
C            0.05872802255097        1.34458186894803       -0.01669260410870
O            0.45335671868123        2.51456954498185        0.07962312150072
N           -1.35827189112001        0.99565925605372       -0.17477141121014
C           -2.18493475077774        2.17114800567272        0.07784044686966
C           -2.00541565775367       -0.23446710187095       -0.60407677625509
O           -3.10538113937072       -0.34262623632349       -1.09632571265954
N           -1.01851603558253       -1.30720995189335       -0.18288670812792
C           -1.44079534507340       -2.66595637638054        0.10864125602056
H            3.75786006300563        1.24063370290304        1.07647261712708
H            4.03554460201603        1.00791898275064       -0.65592503742028
H            2.76382936617463        2.12679832063212       -0.09625476649214
H            3.57534567148107       -1.61597321822124        0.00221612919886
H           -1.55158109455339        3.06033472625954        0.18171068893638
H           -2.86600169487868        2.31179789672273       -0.74981821142610
H           -2.73025926313847        2.04170995694061        1.01528924436059
H           -0.73498878487363       -3.17492443620143        0.77441291350071
H           -1.52319157625877       -3.24903032121783       -0.80906876335278
H           -2.40272884126356       -2.63507230074925        0.61241489470572
H            1.41133428474216       -2.92838345426816        0.02636803272924
25
 energy: 18.643644166374 xtb: 6.6.1 (8d0f1dd)
C            3.26252346173018        1.18047398831734        0.10227679114920
N            2.28754361263145        0.12838298896904        0.07368396618370
C            2.58906175425956       -1.21968459609711        0.12912063531009
N            1.40286283483741       -1.92179907709721        0.00848318740933
C            0.34819256395137       -1.05845494627709       -0.04729715651556
C            0.89284754678583        0.21791587226011        0.00443256969682
C            0.05837568095315        1.34406484451315       -0.01711236755696
O            0.45287056547197        2.51361178136439        0.08028362381290
N           -1.35799902407113        0.99471471904025       -0.17446291768492
C           -2.18516061271911        2.17090801400998        0.07597590636771
C           -2.00449137480519       -0.23479737522818       -0.60410757731305
O           -3.10574311094444       -0.34257348186407       -1.09364797273580
N           -1.01768479697321       -1.30722471731924       -0.18727148121327
C           -1.44163156129133       -2.66543164036880        0.10695077386108
H            3.75880413280754        1.24132948895155        1.07813121725611
H            4.03569514573946        1.00858299127695       -0.65440194494386
H            2.76402056603385        2.12709086096801       -0.09436183065700
H            3.57519797097013       -1.61515980347654       -0.00557449437217
H           -1.55269689951552        3.06053418585021        0.17837764994098
H           -2.86600873523378        2.30894474052287       -0.75296105666498
H           -2.73071449932360        2.04329127154734        1.01359205442311
H           -0.72536624419551       -3.17729892045540        0.76509576367331
H           -1.53947795584202       -3.24651502489464       -0.81335736750702
H           -2.40014321715286       -2.63343219339423        0.62761312340118
H            1.41133686383208       -2.92844536894680        0.02757280082646
25
 energy: 18.595865177493 xtb: 6.6.1 (8d0f1dd)
C            3.26210355081639        1.18009065336200        0.10369550463803
N            2.28681300239484        0.12799555494685        0.07563465693864
C            2.58844047080615       -1.21899156600198        0.13596098998978
N            1.40322728658462       -1.92162802848496        0.00850059536960
C            0.34795027055697       -1.05879004996139       -0.04893168840137
C            0.89322748388367        0.21722769176304        0.00424149767386
C            0.05822146011380        1.34432142089276       -0.01983486594374
O            0.45325409501670        2.51257479237449        0.08021185931507
N           -1.35811046655447        0.99406558163462       -0.17479522444037
C           -2.18470679810877        2.17091457627086        0.07498058834328
C           -2.00481305162584       -0.23532272403648       -0.60399912227558
O           -3.10776248706866       -0.34211300765231       -1.08970287612648
N           -1.01729089105377       -1.30708380497867       -0.18894501145125
C           -1.44142445252268       -2.66524458452112        0.10633359700957
H            3.75855132266723        1.24040802030898        1.07931386952067
H            4.03497130998591        1.00742965364478       -0.65330604776600
H            2.76436564533822        2.12694233263070       -0.09323613542776
H            3.57359943827972       -1.61235394243439       -0.01268729282279
H           -1.55222093603873        3.06028947905547        0.17672252672460
H           -2.86562749278372        2.30913434686413       -0.75359591158725
H           -2.73035188061776        2.04414919778434        1.01267441823139
H           -0.72220235658114       -3.17757321007206        0.76133013588969
H           -1.54358821664215       -3.24518717777800       -0.81285801871460
H           -2.39711147358077       -2.63389563029727        0.63155086513879
H            1.41269983467053       -2.92833097314247        0.02777498632158
25
 energy: 18.528783194778 xtb: 6.6.1 (8d0f1dd)
C            3.26110278858625        1.17954720463423        0.10654809263757
N            2.28516701185600        0.12771440574333        0.07984538703604
C            2.58780711760638       -1.21780510796093        0.15565722026203
N            1.40397104327903       -1.92150450668840        0.00899538384072
C            0.34806484974144       -1.05925196367175       -0.05287282999042
C            0.89398170517563        0.21613357436619        0.00298767220711
C            0.05826370901340        1.34493042125741       -0.02471743269040
O            0.45423167156267        2.51094889452188        0.07988483057898
N           -1.35781492365158        0.99277395247941       -0.17529634318622
C           -2.18369113385778        2.17076154410121        0.07263257944684
C           -2.00505417335012       -0.23688262175687       -0.60442198199189
O           -3.11289190174846       -0.34194535993054       -1.08054566605277
N           -1.01555135189376       -1.30705006653783       -0.19245901303289
C           -1.44014079119298       -2.66510598703815        0.10510424394234
H            3.75771044416477        1.23890678184567        1.08177870623429
H            4.03344256536671        1.00484118682233       -0.65080491686645
H            2.76487103551622        2.12671239605101       -0.09122071023827
H            3.57009272666467       -1.60605280039673       -0.03253208304977
H           -1.55105219950784        3.05984282254403        0.17408765438211
H           -2.86475604762650        2.30978661048965       -0.75551530899108
H           -2.72983281998965        2.04500366393746        1.01025911296098
H           -0.71840855177317       -3.17865934853056        0.75294012879468
H           -1.55424115212021       -3.24410969095460       -0.81198705734618
H           -2.38841590504155       -2.63240127680835        0.63955077995873
H            1.41535895115671       -2.92810612634715        0.02913544730126
25
 energy: 18.490475450451 xtb: 6.6.1 (8d0f1dd)
C            3.26075523920539        1.17926635192721        0.10689584000728
N            2.28455709496374        0.12771838672019        0.08012343264188
C            2.58773881154715       -1.21790735627033        0.16205103334564
N            1.40355980108962       -1.92176236688502        0.00916212137794
C            0.34803591510370       -1.05916936302462       -0.05456325433175
C            0.89386273472032        0.21607223903301        0.00130220743250
C            0.05845569424509        1.34516353653829       -0.02573485514323
O            0.45453408072406        2.51104205015149        0.07878093018704
N           -1.35748052137853        0.99306619768807       -0.17592474922642
C           -2.18347074417356        2.17072260597337        0.07241779460005
C           -2.00515344067722       -0.23715921989825       -0.60428398594000
O           -3.11423430675982       -0.34210371294137       -1.07803224297302
N           -1.01519860449057       -1.30712088150801       -0.19265763237457
C           -1.43983062530100       -2.66508863974959        0.10492436370102
H            3.75697961819208        1.23853174935202        1.08230150481052
H            4.03329829517217        1.00388079812702       -0.65000919826369
H            2.76500297573050        2.12651832342427       -0.09126965589593
H            3.56831122976806       -1.60476720058685       -0.03756906156904
H           -1.55067996583442        3.05974724252978        0.17469826513134
H           -2.86444498401716        2.31081462388169       -0.75544203119812
H           -2.72986711481650        2.04423299867144        1.00978269199127
H           -0.71711249566612       -3.17900892313190        0.75145245421495
H           -1.55366076786101       -3.24352766477095       -0.81147585680115
H           -2.38700302029571       -2.63197746657704        0.63968521678546
H            1.41525976874598       -2.92815570650202        0.03041856363737
25
 energy: 18.433370060667 xtb: 6.6.1 (8d0f1dd)
C            3.26037809479457        1.17889468185190        0.10721997066687
N            2.28382102357066        0.12784825171621        0.07994210158686
C            2.58807226013027       -1.21837360217065        0.17287160725257
N            1.40257225599094       -1.92221104104514        0.01024453892414
C            0.34824921299603       -1.05873292723816       -0.05750170015020
C            0.89378403035786        0.21624127525906       -0.00243640662229
C            0.05881332609994        1.34550921707340       -0.02722593367893
O            0.45481249907258        2.51157183199266        0.07625040451540
N           -1.35674842657857        0.99425193837496       -0.17796337418970
C           -2.18324444668365        2.17057176755972        0.07282519016452
C           -2.00535261337065       -0.23747630109994       -0.60437475280851
O           -3.11580093506781       -0.34282121260176       -1.07546373451810
N           -1.01459486271439       -1.30713534003702       -0.19268368486236
C           -1.43892184209883       -2.66513692978486        0.10469036860984
H            3.75568006593245        1.23825667560176        1.08313052290338
H            4.03353909545528        1.00255576051389       -0.64862582438607
H            2.76535096506940        2.12628409483799       -0.09171405778081
H            3.56532017888230       -1.60333954592870       -0.04655948336875
H           -1.55038340647933        3.05952846119460        0.17731747681129
H           -2.86384375336859        2.31324446034472       -0.75442465427307
H           -2.73009911998320        2.04174505250536        1.00954231948291
H           -0.71666467302061       -3.17851739470426        0.75109521185262
H           -1.55099457870422       -3.24437748768361       -0.81173613598730
H           -2.38602175593580       -2.63114695482558        0.63874235658667
H            1.41449207358963       -2.92820612953463        0.03387156941637
25
 energy: 18.428279486286 xtb: 6.6.1 (8d0f1dd)
C            3.26039928559902        1.17877268676835        0.10706177013542
N            2.28378336437089        0.12781665794472        0.07949322263004
C            2.58838167091559       -1.21879004140070        0.17620971721596
N            1.40186537706080       -1.92234751555061        0.01173055645101
C            0.34827822395555       -1.05846416504045       -0.05793187937990
C            0.89391333960803        0.21634182771451       -0.00403416835133
C            0.05880404760738        1.34547954272043       -0.02778997303226
O            0.45467165412439        2.51173751098224        0.07500130255855
N           -1.35642814956383        0.99519592111906       -0.17952261433437
C           -2.18320918438857        2.17055651890552        0.07354216001978
C           -2.00567714042606       -0.23739559395521       -0.60441216459353
O           -3.11584365630788       -0.34319224093126       -1.07595188360943
N           -1.01481608286723       -1.30693594541368       -0.19206872311570
C           -1.43872311647237       -2.66509823225090        0.10475395844619
H            3.75539880169389        1.23835880985218        1.08317103361977
H            4.03389810371859        1.00235658148920       -0.64838362147182
H            2.76557311675767        2.12624393803249       -0.09214691215838
H            3.56418144631138       -1.60355966987620       -0.05062090982037
H           -1.55043096841229        3.05944551596581        0.17934881101500
H           -2.86377362905913        2.31474799561956       -0.75340365098613
H           -2.73009326682811        2.04019558420077        1.01001083151452
H           -0.71714964379472       -3.17750867578230        0.75326115020678
H           -1.54664140176575       -3.24497843953105       -0.81215820504703
H           -2.38772892637667       -2.63170718199768        0.63568207749561
H            1.41358140247573       -2.92824278741287        0.03619201073896
25
 energy: 18.405685928532 xtb: 6.6.1 (8d0f1dd)
C            3.26047579858247        1.17881855398958        0.10688134850408
N            2.28398623741663        0.12771013769171        0.07934956639414
C            2.58880778806252       -1.21908100994123        0.17895206591363
N            1.40138356465183       -1.92229394054114        0.01384011350525
C            0.34835762003444       -1.05827034031835       -0.05739829005400
C            0.89436638502953        0.21632075005384       -0.00482726966931
C            0.05854996889617        1.34529072117984       -0.02825966601570
O            0.45437407949214        2.51151495975787        0.07485987327673
N           -1.35601291591827        0.99605840551596       -0.18099255179531
C           -2.18312635384386        2.17052489402716        0.07427427410534
C           -2.00575054046873       -0.23731167960463       -0.60457408540517
O           -3.11498112134677       -0.34350961410730       -1.07771706303153
N           -1.01511346209181       -1.30657102035576       -0.19162323958932
C           -1.43861698593474       -2.66497160477630        0.10474338689149
H            3.75557045674096        1.23863358385808        1.08294259186443
H            4.03410205671402        1.00258294032949       -0.64857541272466
H            2.76565053658298        2.12631703673680       -0.09246276034436
H            3.56327427871418       -1.60394628703139       -0.05569116459060
H           -1.55070498305111        3.05945357850770        0.18089039783473
H           -2.86384465082286        2.31548798410186       -0.75242848769077
H           -2.72983970948301        2.03888855861343        1.01063790440857
H           -0.71871719339024       -3.17599161929632        0.75634380851818
H           -1.54246477519174       -3.24589278261506       -0.81287517808884
H           -2.39022145064887       -2.63249463957116        0.63232259318108
H            1.41271003921044       -2.92823896403278        0.03842114074922
25
 energy: 18.368545969529 xtb: 6.6.1 (8d0f1dd)
C            3.26044327667696        1.17899656738621        0.10662458589507
N            2.28419998129847        0.12757568877056        0.07944129192444
C            2.58917446944373       -1.21914517859698        0.18046310814203
N            1.40133837213334       -1.92214003106968        0.01544232343769
C            0.34839050289403       -1.05828661892476       -0.05616329410915
C            0.89488909686508        0.21611243215978       -0.00444067946025
C            0.05812509230845        1.34500627661973       -0.02821619850788
O            0.45416211943688        2.51085220261641        0.07636301625863
N           -1.35554183164598        0.99632233514200       -0.18128578521103
C           -2.18296213204942        2.17055381525366        0.07456229435638
C           -2.00537025991055       -0.23741034683243       -0.60475314512546
O           -3.11352521083445       -0.34351635126946       -1.07980356661491
N           -1.01535006350384       -1.30617167737964       -0.19137750539880
C           -1.43874770617235       -2.66478192904459        0.10476553010718
H            3.75612768626138        1.23883255559506        1.08232644638410
H            4.03383306079162        1.00308246498809       -0.64933994436068
H            2.76541961416610        2.12645603676886       -0.09254386990514
H            3.56249313568871       -1.60404913526788       -0.05951483948340
H           -1.55103309499575        3.05971946500061        0.18082743669677
H           -2.86416454961662        2.31477469890233       -0.75209090584232
H           -2.72923963727212        2.03876218485902        1.01116669295987
H           -0.72030829999104       -3.17503476657696        0.75911387718781
H           -1.53990652619234       -3.24613474511346       -0.81323460780945
H           -2.39245485650619       -2.63310188188275        0.62930837332686
H            1.41222242866220       -2.92824545993190        0.03939326129896
