  25
        -42.10846761
 C          3.1587721002        1.0707530018        0.0192935086
 N          2.2894585925        0.0668525000        0.0089940823
 C          2.5535213644       -1.2591311609       -0.0012315773
 N          1.3875850798       -1.9635619626       -0.0032205416
 C          0.3566289844       -1.0774216809        0.0065100773
 C          0.9019483269        0.1951092394        0.0107874152
 C          0.0782748547        1.3817225024        0.0114724142
 O          0.4786274775        2.5223219369        0.0061078358
 N         -1.2790628387        1.0532197757        0.0064838795
 C         -2.2356589630        2.1513865748        0.0015135512
 C         -1.8478887827       -0.2065035173        0.0088276483
 O         -3.0345294057       -0.3770895898        0.0085917198
 N         -0.9658157768       -1.3106527104        0.0084583994
 C         -1.5155878627       -2.6503151661        0.0208790218
 H          2.7749481110        2.0754368078        0.0328542027
 H          4.2109828677        0.8579816407        0.0215745861
 H          3.9808084857        3.9990559377       -1.5606315860
 H          3.5296135974       -1.6971143963       -0.0062798527
 H         -1.6790831064        3.0855255111        0.0040866878
 H         -2.8659676689        2.0874682218       -0.8849297351
 H         -2.8751670390        2.0885279039        0.8821713093
 H         -1.1811158496       -3.1914094935        0.9068287568
 H         -1.2277227813       -3.1925409966       -0.8809589835
 H         -2.6011473716       -2.5595508986        0.0482117060
 H          1.3242400781       -2.9709759789       -0.0142099663
