  25
        -42.14561253
 C          3.5580860538        0.9494793040        0.0340595727
 N          2.4832060563       -0.0035873287       -0.0078249860
 C          2.6075138248       -1.3400363186       -0.0079211866
 N          1.3748570516       -1.8939651684       -0.0105745086
 C          0.4267609149       -0.8871579208       -0.0117671913
 C          1.1332284862        0.3225807355       -0.0044213697
 C         -0.4503278582        2.0826746672       -0.0327093790
 O          0.8156858076        1.6103669996        0.0076408965
 N         -1.5199417132        1.2695114770        0.0175505214
 C         -2.9651845572        1.4468168568       -0.0406512982
 C         -1.7476613335       -0.0495747066        0.0853965071
 O         -3.1271295393        0.0268713881       -0.0045648110
 N         -0.9217587170       -1.1167874551       -0.0036074521
 C         -1.4745333322       -2.4556863282       -0.0132358578
 H          3.8711953879        1.1307787603        1.0650160271
 H          4.4056616130        0.5704907154       -0.5342296659
 H          3.2180324217        1.8888766649       -0.3978131987
 H          3.5302791675       -1.8778930303       -0.0147511285
 H         -0.5457985444        3.1481246783        0.0071939379
 H         -3.3295712247        1.8823227415       -0.9729565748
 H         -3.3980867391        1.9398721106        0.8322811662
 H         -1.1655011220       -3.0100283702        0.8747573092
 H         -1.1616231774       -2.9872984393       -0.9131781427
 H         -2.5587582981       -2.3698387958       -0.0153714141
 H          1.1789387907       -2.8804810161       -0.0221116233
