  72
        -99.29326712
 N         -1.6580876116        2.8228164458        2.4660721088
 C         -1.7563035943        2.1472947889        1.4206232699
 C         -2.9618034491        2.1300441344        0.5220656574
 C         -3.6113922565        0.7517690301        0.5721794324
 C         -4.6689104894        0.4340769679       -0.2083685246
 C         -5.3652920335       -0.9055368925       -0.1674758348
 O         -5.9618866861       -1.2648728218       -1.3804931207
 C         -5.0893374439       -1.3918717911       -2.4800810090
 C         -4.3927546036       -1.9649513179        0.3654342404
 O         -4.6131963614       -3.2048227320       -0.0632113321
 C         -3.7501199996       -4.2171625011        0.4123741683
 C         -3.4644687349       -1.5515222864        1.2639832009
 C         -3.1303111119       -0.2527667754        1.4866420305
 C         -2.4389040547        2.3646821323       -0.9198648976
 C         -1.6350626369        1.1880924273       -1.5019471970
 C         -0.2750228659        1.0662057581       -0.9296821643
 N          0.3379068868       -0.0763986747       -0.6410397679
 C          1.7295144142       -0.0796330455       -0.2550542002
 C          2.6524391860       -0.4614493893       -1.4285466591
 C          4.0885130433       -0.3351189121       -1.0025072364
 C          4.7542602728        0.8739318380       -1.1246560791
 C          6.0664398916        1.0086411828       -0.6988762251
 C          6.7397276818       -0.0660963985       -0.1357800355
 O          8.0078119529       -0.0508625089        0.3127815461
 C          8.7593489729        1.1371131045        0.2133157609
 C          6.0645790573       -1.3118758018       -0.0061151564
 O          6.7930180257       -2.3020906866        0.5451956652
 C          6.2232484908       -3.5811639762        0.6889911667
 C          4.7517020489       -1.4214723587       -0.4371820644
 C         -0.3330320134       -1.3504586799       -0.7389464254
 C         -4.0193790706        3.2084623562        0.8935260637
 C         -4.6322156425        2.9361344221        2.2653251833
 C         -3.4678289500        4.6309352234        0.8479145728
 H         -5.1381712927        1.1546118479       -0.8593629908
 H         -4.4712111615       -0.4945949146       -2.6071633597
 H         -5.7255881103       -1.5209535816       -3.3531846618
 H         -4.4383957604       -2.2667191811       -2.3806557590
 H         -3.4487903463       -4.0060009849        1.4423066027
 H         -4.3031423287       -5.1529437619        0.3581297990
 H         -2.8572658438       -4.2829026801       -0.2171596440
 H         -6.2142794873       -0.8290156223        0.5333979572
 H         -2.5137436764        0.0382545368        2.3219983045
 H         -3.2969299758        2.5428084126       -1.5674169310
 H         -1.8185195672        3.2611556558       -0.9333025164
 H         -2.2011580283        0.2646118500       -1.3858294206
 H         -1.5268562076        1.3774086054       -2.5782427894
 H         -0.9421088312        1.5111032341        1.0199918299
 H          0.3274248173        1.9613593058       -0.8832191081
 H          1.8725189600       -0.7863329594        0.5665086425
 H          2.0072616371        0.9153320997        0.0990583094
 H          2.4525095755        0.2108243043       -2.2647062218
 H          2.4402304660       -1.4824878418       -1.7476069878
 H          4.2556606246        1.7231918575       -1.5667294887
 H          6.5600083726        1.9595456808       -0.8142060662
 H          8.3047477760        1.9481077153        0.7903744542
 H          8.8771640528        1.4503385407       -0.8282884180
 H          9.7357183783        0.9003480817        0.6315507129
 H          7.0014210636       -4.1991023022        1.1326387216
 H          5.3547316714       -3.5612603223        1.3551667547
 H          5.9343075210       -4.0028045322       -0.2787133153
 H          4.2332761410       -2.3633698899       -0.3484082621
 H         -0.6365450129       -1.5562001197       -1.7674501232
 H         -1.2202238852       -1.3672170742       -0.0982091293
 H          0.3421774067       -2.1368366764       -0.4122804318
 H         -4.8168688583        3.1324257075        0.1462644434
 H         -3.8788978908        3.0463912342        3.0387420197
 H         -5.0495181883        1.9332510905        2.3178224849
 H         -5.4304266990        3.6484208748        2.4555624050
 H         -2.6501483196        4.7436598918        1.5531025888
 H         -3.1252786239        4.9018577198       -0.1472725121
 H         -4.2549317866        5.3258028197        1.1280638640
 H         -0.7881443965        2.7737299299        2.9865705093
