  25
        -42.11977229
 C          2.2239640056        2.5097277608        0.0106058434
 N          2.3111087240       -0.2705570079        0.0147481744
 C          3.3950228181       -0.6970279634       -0.0290737580
 N          0.7588261710       -2.6281845219       -0.0077118794
 C          0.2596364884       -1.4761577501       -0.0020601289
 C          1.0064355917       -0.1705297715        0.0027773800
 C          0.3057976877        1.0412133192       -0.0010469698
 O          0.8271432084        2.2519622247       -0.0016806674
 N         -1.0338679600        1.0128594212       -0.0021844444
 C         -1.8293113794        2.2328037752       -0.0051600998
 C         -1.8085421761       -0.1810266553        0.0018472209
 O         -3.0026786401       -0.1044021717        0.0044449172
 N         -1.1082405107       -1.3531730045        0.0028807471
 C         -1.8698208977       -2.5943409429        0.0058856414
 H          2.6952785898        2.1156050368        0.9133916727
 H          2.7098278294        2.1208684129       -0.8864322819
 H          2.2850551849        3.5991936041        0.0139257344
 H          4.4116350980       -0.9714018557        0.0112433371
 H         -1.1821978657        3.1020810682        0.0058997184
 H         -2.4610069038        2.2440622209       -0.8930846869
 H         -2.4802996154        2.2354542099        0.8687790508
 H         -1.6081682378       -3.1775314016        0.8866447656
 H         -1.6207843972       -3.1745173913       -0.8805553323
 H         -2.9282632467       -2.3457984070        0.0137011318
 H          1.7615828635       -2.7461289625       -0.0115085715
