  72
        -99.38467788
 N         -2.4838894081        2.6754960182        2.7016815370
 C         -1.9045288655        2.1750124413        1.6017969352
 C         -2.8931637042        2.0214262306        0.4966060639
 C         -3.4406331258        0.5994284567        0.4435368272
 C         -4.2936510251        0.2147913605       -0.5538021521
 C         -4.8141693055       -1.0805758649       -0.6491190712
 O         -5.6309853738       -1.5267028410       -1.6260940334
 C         -6.0450177530       -0.6489693561       -2.6436655681
 C         -4.4710560099       -2.0548842112        0.3525635943
 O         -5.0409075260       -3.2668750814        0.1598130378
 C         -4.8358445638       -4.2698629063        1.1256003748
 C         -3.6412233507       -1.7183507695        1.3691081704
 C         -3.0659578344       -0.3507166189        1.5370504626
 C         -2.3084629473        2.4407608550       -0.8708025240
 C         -1.4047076905        1.3871982257       -1.5319768183
 C         -0.1168014452        1.1868928996       -0.8340025924
 N          0.4359786210       -0.0003740246       -0.5450040701
 C          1.8297440899       -0.0653366356       -0.1742344584
 C          2.7388855408       -0.3333885515       -1.3909549890
 C          4.1831621144       -0.2251604898       -0.9927673411
 C          4.8647816684        0.9714932085       -1.1236322655
 C          6.1917896906        1.0789097420       -0.7334718225
 C          6.8594883028       -0.0102633838       -0.1965542580
 O          8.1459916751       -0.0195903601        0.2146540911
 C          8.9120035694        1.1540469202        0.0791345344
 C          6.1668678719       -1.2411205748       -0.0528521715
 O          6.8927741640       -2.2514261593        0.4776931005
 C          6.2963411866       -3.5165303797        0.6253688776
 C          4.8434581011       -1.3263813970       -0.4503017938
 C         -0.1957924983       -1.2463253204       -0.9049139425
 C         -4.0383482079        2.9785676483        0.9879831890
 C         -3.8924265908        2.9201123329        2.5178024820
 C         -3.8955676974        4.4238231726        0.5200792387
 H         -4.5707843514        0.9332799465       -1.3093150122
 H         -6.6066371430        0.1998475024       -2.2411636562
 H         -6.6964803596       -1.2358480574       -3.2885129287
 H         -5.1958973574       -0.2810108998       -3.2294286437
 H         -5.2046460405       -3.9588556462        2.1080276519
 H         -5.4066845727       -5.1297026935        0.7811924928
 H         -3.7788950207       -4.5432890730        1.2033912584
 H         -3.3816878617       -2.4298397052        2.1357203729
 H         -1.9685109399       -0.4197980959        1.6116297635
 H         -3.1309715104        2.6456369778       -1.5546848778
 H         -1.7414905687        3.3625591835       -0.7425590765
 H         -1.9506039139        0.4521566844       -1.6361951872
 H         -1.1885955295        1.7565643531       -2.5441319004
 H         -0.8631483442        1.9285891752        1.5666152706
 H          0.4727756696        2.0579410244       -0.5985217200
 H          1.9679605656       -0.8578903404        0.5658824082
 H          2.1232820073        0.8828505207        0.2808564267
 H          2.5102004383        0.4040230326       -2.1625711605
 H          2.5312020792       -1.3274615504       -1.7887473356
 H          4.3694632272        1.8327426471       -1.5462252409
 H          6.6989360850        2.0215193472       -0.8585354230
 H          8.4946602586        1.9766612771        0.6684977443
 H          8.9947654098        1.4605697183       -0.9681976203
 H          9.9001063958        0.9034486588        0.4602953702
 H          7.0688452137       -4.1563457007        1.0476267964
 H          5.4427351689       -3.4817403777        1.3106312926
 H          5.9755501690       -3.9253420141       -0.3381528847
 H          4.3102433324       -2.2594747975       -0.3556886402
 H         -0.1660863806       -1.4161813432       -1.9848895537
 H         -1.2363480913       -1.2575939496       -0.5813941251
 H          0.3267068510       -2.0632679299       -0.4118620058
 H         -5.0091042521        2.5945408786        0.6737580685
 H         -4.1894460573        3.8526700896        3.0001464276
 H         -3.3909562844        0.0500711813        2.5089787949
 H         -4.4877339143        2.1054266907        2.9484439436
 H         -2.9362207769        4.8362923732        0.8230677531
 H         -3.9905818197        4.5106734947       -0.5574359864
 H         -4.6834650235        5.0242900488        0.9688922547
 H         -2.0198159156        2.7989252165        3.5852467250
