25
 energy: -42.082722555999 gnorm: 0.007259732924 xtb: 6.6.1 (8d0f1dd)
C            3.31198353046529        1.33456682355254        0.42472164303404
N            2.44781407926816        0.26145495185552        0.02214421188620
C            2.80366368359854       -0.99791479939227       -0.30205889469318
N            1.76621851857842       -1.73861824620741       -0.63848747657792
C            0.69745567474565       -0.95035031247783       -0.53120182141402
C            1.09021537554615        0.31640643546654       -0.11174922270763
C            0.17350437180933        1.44396884424978        0.01936830373020
O            0.48896004453419        2.61061695633712        0.10464675420937
N           -1.14077539663429        1.04529064989955       -0.06267239605911
C           -2.23718587794966        1.96262497237690        0.01565770439713
C           -0.76693344630220       -1.24322307612326       -0.74737149203914
O           -1.50855342881657       -0.28441079471262        0.04605586620738
N           -1.08797524179621       -2.53792207590920       -0.45272153184719
C           -2.01045501083859       -2.97340056713865        0.46855107466884
H            3.49831075065634        1.29263880178150        1.50009023681397
H            4.26313027629004        1.25568181881230       -0.09928463838036
H            2.83592873437014        2.28708060896792        0.19172370599649
H            3.81179903688729       -1.36178279609191       -0.28115887956491
H           -1.82897823420838        2.97187465818562        0.00730540153477
H           -2.90438703075185        1.81691623448973       -0.83651826659912
H           -2.80763049593640        1.80086983025081        0.93374125044837
H           -1.47785152773702       -3.49272481807355        1.28382896397071
H           -2.61258256527703       -3.76743333777591        0.00217112006170
H           -2.64910897204661       -2.18880332840057        0.89164098516255
H           -0.99613533435655       -1.04516889232197       -1.81725098433710
