  25
        -42.15609355
 C          2.7960745689        1.5608103775        0.2442344026
 N          1.9670116747        0.3460835022        0.1853780349
 C          2.3940135078       -0.8953915026        0.0331397452
 N          1.3451680529       -1.7365824509       -0.0752427918
 C          0.2058424486       -0.9892818123        0.0041343508
 C          0.5911413550        0.3388092328        0.1646193086
 C         -0.3386188025        1.4097625963        0.3026019827
 O          3.1314477043        1.9721971595       -1.0236678251
 N         -1.5928348237        0.9686891213        0.2444879870
 C         -2.6622088040        1.9427305132        0.3809189608
 C         -2.0628733635       -0.3449955623        0.0648004961
 O         -3.2292890693       -0.6112486601        0.0129038180
 N         -1.0815140490       -1.3521867045       -0.0526416115
 C         -1.5006913626       -2.7287429753       -0.2324961703
 H          2.2187203186        2.2999809281        0.8109665738
 H          3.7228181471        1.3068382953        0.7684667080
 H          2.4503875221        2.5374177133       -1.4104860331
 H          3.4244248730       -1.1927862025       -0.0023083538
 H         -2.2142298818        2.9232363253        0.5101504254
 H         -3.2953660711        1.9255747562       -0.5060315883
 H         -3.2834676185        1.6925559594        1.2409013338
 H         -1.1314353761       -3.3491147896        0.5841480798
 H         -1.1446470753       -3.1130818816       -1.1886082411
 H         -2.5900201701       -2.7423012582       -0.2271523642
 H          1.4117777109       -2.7388292129       -0.1950126287
