  25
        -42.09037803
 C          3.2163333560        1.1259227109        0.0166339796
 N          2.2633077450        0.0505722965       -0.0003444745
 C          2.5586323928       -1.2519633314       -0.0145899799
 N          1.3906391887       -1.9377038073       -0.0093782187
 C          0.3408790506       -1.0648103091        0.0061532517
 C          0.8974452361        0.2095132820        0.0123155437
 C          0.0676610512        1.3931924468        0.0021336021
 O          0.4607170820        2.5366833918       -0.0115980537
 N         -1.2896616946        1.0666885160        0.0025461030
 C         -2.2426050287        2.1649766381       -0.0074491817
 C         -1.8587101351       -0.1965323513        0.0049191224
 O         -3.0490301091       -0.3581920508        0.0039064720
 N         -0.9829653669       -1.2962003916        0.0070719431
 C         -1.5330725610       -2.6353349657        0.0005866876
 H          3.7139001920        1.1725694597        0.9871154440
 H          3.9719902989        0.9634311266       -0.7512025975
 H          2.6992663890        2.0679622153       -0.1615925787
 H          5.4269075238       -1.7881036499       -0.1479726025
 H         -1.6860739569        3.1000212120       -0.0030411729
 H         -2.8717683919        2.1022487154       -0.8964079533
 H         -2.8888104897        2.1028546364        0.8690719603
 H         -1.2072422365       -3.1842531965        0.8850426012
 H         -1.2257139238       -3.1687445576       -0.8999644854
 H         -2.6194380638       -2.5491111387        0.0118331220
 H          1.3394785418       -2.9461831662       -0.0160358809
