  25
        -42.15834372
 C          2.9452552395        1.1982151168       -0.4596430940
 N          2.1135886447        0.0586502481       -0.1933414238
 C          2.5132233268       -1.1922976400       -0.1191864099
 N          1.4825504086       -2.0013790261        0.1532062354
 C          0.2980077886       -1.2441693093        0.2743063948
 C          0.7328464502        0.1084414091        0.0227723969
 C          0.0428281098        1.3162498649        0.0274755134
 O          0.3906695809        2.4601643697       -0.0579519211
 N         -1.5120020973        1.1065432101        0.1719601759
 C         -2.0786041896        1.6001308068        1.4207984185
 C         -2.1202025702        0.7454535797       -0.8457015290
 O         -2.5452231343        0.3725567532       -1.8424112783
 N         -0.8709789382       -1.6415333786        0.5695723688
 C         -1.2078308264       -3.0013153885        0.8567979669
 H          2.9414319410        1.8741622571        0.3965290013
 H          3.9625199958        0.8693514763       -0.6587128849
 H          2.5642373763        1.7504604980       -1.3184339616
 H          3.5265984639       -1.5197926177       -0.2599335646
 H         -1.6579691694        2.5862636169        1.6212632746
 H         -3.1626147535        1.6700497282        1.3460920054
 H         -1.8077877632        0.9086015841        2.2208604648
 H         -0.4379841467       -3.5529431685        1.4136094315
 H         -1.4172076509       -3.5375254793       -0.0733311331
 H         -2.1243446519       -2.9871992423        1.4455768417
 H          1.5427828611       -3.0028315636        0.2521108529
