  25
        -42.10355610
 C          3.2128021026        1.1591719527        0.0189957118
 N          2.2719060350        0.0696737678        0.0044470489
 C          2.5568925989       -1.2272111354        0.0077308195
 N          1.4185928940       -1.9521355768       -0.0050236569
 C          0.3627840626       -1.0747592624       -0.0121262672
 C          0.9042535932        0.2049363543       -0.0058800038
 C          0.0805374032        1.3946427563       -0.0314595399
 O          0.4824848361        2.5346518938       -0.0694203536
 N         -1.2796405651        1.0668720449       -0.0094213591
 C         -2.2314329868        2.1750192894       -0.0020187517
 C         -1.8599636257       -0.1700484660        0.0143231951
 O         -3.0406129963       -0.3557276992        0.0559579848
 N         -0.9684393711       -1.3258578760       -0.0253639490
 C         -1.5327612089       -2.5410180350       -0.0719949285
 H          3.7110406472        1.2168906729        0.9882430329
 H          3.9663122219        1.0177833250       -0.7549484086
 H          2.6744122112        2.0903013084       -0.1550562625
 H          3.5441261073       -1.6472334501        0.0172495172
 H         -1.6674306374        3.1032280270       -0.0399047773
 H         -2.8922948554        2.0978078897       -0.8640509384
 H         -2.8354616712        2.1330418191        0.9031411847
 H         -1.5608258531       -4.9212504403        1.7639733467
 H         -0.9316492269       -3.4284510758       -0.1095378573
 H         -2.6047490844       -2.5847862645       -0.0675276792
 H          1.3661475902       -2.9613095103        0.0057560068
