  25
        -42.12638630
 C          3.3624446186        0.5947626011        0.0150372020
 N          2.2456729043       -0.3080386567       -0.0021055818
 C          2.3273673484       -1.6439254269       -0.0088923173
 N          1.0641483564       -2.1307686255       -0.0074795408
 C          0.1718171866       -1.0999232879       -0.0001652811
 C          0.9212841773        0.0714388706        0.0046516814
 C          0.2971034361        1.3692659848       -0.0022502099
 O          0.8651131390        2.4402091982       -0.0137648245
 N         -1.0996184829        1.2661936796        0.0025294713
 C         -1.8644839350        2.5009879542        0.0013661439
 C         -1.8613862930        0.1090056796        0.0044623769
 O         -3.0649858296        0.1420160000        0.0077624823
 N         -1.1761102317       -1.1150707805        0.0010812701
 C         -1.9339491101       -2.3482086370       -0.0022205098
 H          3.8657527580        0.5518785864        0.9834162228
 H          4.0787205790        0.3109507262       -0.7561620809
 H          3.0096665725        1.6118874067       -0.1572395579
 H          4.4112433488       -3.7008063818       -0.0156664581
 H         -1.1666178669        3.3368735046        0.0090900638
 H         -2.4984132489        2.5461430908       -0.8862143927
 H         -2.5110683584        2.5389062423        0.8800170392
 H         -1.7019906468       -2.9396498851        0.8848589373
 H         -1.7153322153       -2.9270875435       -0.9010015725
 H         -2.9927351034       -2.0890250336        0.0072104204
 H          0.8467912042       -3.1164896372       -0.0128724699
