  25
        -42.03880421
 C          3.2748381406        0.6089665766        0.7223526816
 N          2.2824435144       -0.1852126098        0.1058920129
 C          2.3552929778       -1.4607838895       -0.5624085525
 N          1.4713021507       -2.3381614154        0.0767308736
 C          0.8039616197       -1.3602815120       -0.7685591776
 C          0.9751952911       -0.0237981435       -0.1498842838
 C          0.2454180397        1.2206897649       -0.0280258410
 O          0.8557143112        2.2622639361        0.1825768642
 N         -1.1243864577        1.2234136325       -0.1967247581
 C         -1.7791815669        2.4999710765       -0.3653416756
 C         -1.9904359934        0.1146716326       -0.0441365664
 O         -3.1771416875        0.2558037360       -0.2959992483
 N         -1.4207108606       -0.9941878817        0.4119315591
 C         -2.1477826122       -2.1543150772        0.7146882653
 H          3.6478973475        0.1170812698        1.6269792807
 H          4.1224804356        0.7349516296        0.0420142153
 H          2.8571600751        1.5875742848        0.9678596033
 H          0.1428741914       -1.6431697341       -1.5656236285
 H         -1.0282967939        3.2656177227       -0.5572900881
 H         -2.4900560828        2.4328514386       -1.1928621964
 H         -2.3449246319        2.7634766162        0.5338276375
 H         -1.6489258626       -2.6702187966        1.5396642885
 H         -2.1785698046       -2.8363608965       -0.1457236169
 H         -3.1858519566       -1.9267079404        0.9953668568
 H          1.4573213791       -3.3029784068       -0.2367953089
