  72
        -99.32616784
 N         -1.7718359595        2.9174751008        2.7359477767
 C         -1.7435350314        2.2619285930        1.6704932623
 C         -2.9059202216        2.2323096491        0.6930947052
 C         -3.4216765217        0.7957611770        0.5637654735
 C         -4.3001704184        0.4974839410       -0.4352371093
 C         -4.6396128637       -0.9146416269       -0.7709961065
 O         -3.7034030736       -1.2964471583       -1.8167130984
 C         -4.1521405752       -2.3310417613       -2.6598743725
 C         -4.4452916054       -1.8315899822        0.4085428298
 O         -5.1017696386       -2.9999477376        0.2738220137
 C         -4.9723253293       -3.9857663042        1.2765224365
 C         -3.6099124477       -1.4758896756        1.4307042823
 C         -3.0419942530       -0.1958860882        1.4846281720
 C         -2.3438450594        2.7223767041       -0.6682870233
 C         -1.5431139492        1.6721460912       -1.4599113413
 C         -0.2490359808        1.3135552108       -0.8427575865
 N          0.2191956554        0.0817483229       -0.6869180311
 C          1.5846320448       -0.1227774356       -0.2655674426
 C          2.5072536811       -0.4540922822       -1.4560927582
 C          3.9462640914       -0.3481630518       -1.0361133338
 C          4.6114065664        0.8631395822       -1.1253212771
 C          5.9314234910        0.9807987724       -0.7184576268
 C          6.6115907348       -0.1141820445       -0.2073449782
 O          7.8927610740       -0.1164550844        0.2117502521
 C          8.6475544253        1.0683783836        0.1076972061
 C          5.9351997519       -1.3598735039       -0.1039731257
 O          6.6713240187       -2.3705999309        0.4041582744
 C          6.0982488421       -3.6510718260        0.5135925535
 C          4.6156573481       -1.4536813635       -0.5165641272
 C         -0.5141876776       -1.0884436490       -1.1033103833
 C         -4.0250067269        3.0859455100        1.2018525115
 C         -4.6870887423        2.6969168854        2.4572162954
 C         -4.3886299478        4.3715885071        0.5748664628
 H         -4.6650701231        1.2509302919       -1.1125464828
 H         -4.4104108300       -3.2299204158       -2.0930733430
 H         -3.3276413624       -2.5515353678       -3.3360507279
 H         -5.0242681150       -2.0121986725       -3.2415456081
 H         -5.3124376659       -3.6092917204        2.2448380687
 H         -5.6074030791       -4.8120941863        0.9634163289
 H         -3.9379629991       -4.3311368155        1.3616268242
 H         -3.3899326633       -2.1662794711        2.2297121631
 H         -2.3675106541        0.0382352156        2.2921113903
 H         -3.1762314977        3.0286079847       -1.2985461018
 H         -1.7171778952        3.5991834199       -0.4923828141
 H         -2.1632302722        0.7947443890       -1.6368722000
 H         -1.3275377760        2.1240348626       -2.4372325314
 H         -0.8811773363        1.6849012773        1.3029039049
 H          0.4211591449        2.1194276636       -0.5805123811
 H          1.6189269212       -0.9369433042        0.4631709521
 H          1.9514070304        0.7847803370        0.2187653715
 H          2.3073123988        0.2600333470       -2.2572586938
 H          2.2906568351       -1.4570367912       -1.8243720260
 H          4.1066075728        1.7281025733       -1.5286823628
 H          6.4244537193        1.9346337146       -0.8095900366
 H          8.2230394451        1.8698857624        0.7202644172
 H          8.7248271887        1.4040171916       -0.9309576569
 H          9.6386942501        0.8170313027        0.4801646862
 H          6.8811109656       -4.2871204951        0.9221705748
 H          5.2411215516       -3.6510231159        1.1948577657
 H          5.7905222225       -4.0383814334       -0.4627428521
 H          4.0955563956       -2.3964384468       -0.4506879968
 H         -0.5023681834       -1.1922422176       -2.1908437682
 H         -1.5543546687       -1.0376180382       -0.7822574309
 H         -0.0551273834       -1.9708640278       -0.6639349024
 H         -5.6520771808       -1.0146189311       -1.1811792166
 H         -4.1552319360        3.1675046091        3.2924710439
 H         -4.6537074189        1.6224282149        2.6215375474
 H         -5.7172673657        3.0464869275        2.4855106219
 H         -3.5061215198        4.9711579303        0.3491500368
 H         -4.9177273960        4.2206895468       -0.3709397969
 H         -5.0429215951        4.9404784451        1.2297927937
 H         -0.9336708887        2.9017320165        3.3092311501
