25
 energy: -42.104286045760 gnorm: 0.002544586044 xtb: 6.6.1 (8d0f1dd)
C            3.23323492573837        1.11748679384095       -0.02213880662170
N            2.29857866254330        0.02433791836189       -0.01867314704042
C            2.59222017395543       -1.27282662605587       -0.04978862757526
N            1.45261208800699       -2.00257458002772       -0.01420612580404
C            0.39944348577661       -1.13895590520982        0.04264249069960
C            0.92627864210262        0.14668907647945        0.04285577833715
C            0.10314535429778        1.31712357522443        0.07816971795404
O            0.45432648731118        2.47507092060286        0.05358337640396
N           -1.29270004968285        0.96916744326300        0.14934388615981
C           -2.16871532173392        1.98085200348222        0.21625414903058
C           -1.83225504628429       -0.34975044027031        0.14629654494111
O           -3.01648991921428       -0.53557179655864        0.19099610531003
N           -0.92248103940790       -1.40231166354967        0.08576237783137
C           -1.42997895166638       -2.76169005456243        0.07723469845601
H            3.74319789583981        1.18323059438105        0.94026967967046
H            3.97658371491550        0.97538543304477       -0.80534452612256
H            2.68846115785857        2.04501813507822       -0.19351811298105
H            3.58043468892799       -1.68442361017621       -0.09896081447413
H           -1.77891685293014        2.98246806317744        0.22430725341100
H           -3.31700929681792        4.29570333242654       -1.47650155423882
H           -3.21647986237136        1.75451194724822        0.26437636479191
H           -1.10201331022286       -3.29772517032192        0.96836704434403
H           -1.09993376848612       -3.28372260249592       -0.82070035911255
H           -2.51759541807716       -2.70787604533288        0.07723802010510
H            1.40648307372110       -3.01137820044982       -0.02669379557555
