25
 energy: -42.443569744146 xtb: 6.6.1 (8d0f1dd)
C            3.30873250883080        1.12328837000808        0.07046953565479
N            2.36602766544362        0.04323059328189        0.03245646400184
C            2.64995574197729       -1.27586041860505       -0.00470745594708
N            1.49497488584258       -1.97981472775238       -0.00434033022930
C            0.45380239497816       -1.11221840483189        0.03708033381841
C            0.97709460084880        0.18453295232935        0.06338345324405
C            0.17293151161447        1.34046563384526        0.08235065496962
O            0.55795719220716        2.51193388744804        0.06731758070815
N           -1.22589748170364        1.02499882108475        0.11435805085760
C           -2.09728833820321        2.04835515070843        0.19881729559888
C           -1.76477024900957       -0.27203629315608        0.10916217058150
O           -2.95927681935884       -0.47984566069091        0.15018706673043
N           -0.87527682052198       -1.35152065072974        0.04453202902818
C           -1.39831075876516       -2.69940427060869       -0.01225031915367
H            3.78159730664474        1.18476577209864        1.05346595948507
H            4.08116490560509        0.97747010344800       -0.68533074593717
H            2.76500595517945        2.04887370549196       -0.11852306231234
H            3.63005152170956       -1.69786460034329       -0.03176467285342
H           -1.67913551050431        3.03277101857104        0.24613469004118
H           -3.98344737443393        3.55418425529975       -1.58267005091596
H           -3.14269899825205        1.86084948778605        0.07759518386356
H           -1.08525615587695       -3.27050266079327        0.86462099054947
H           -1.06255266532476       -3.20133693017145       -0.92191436711433
H           -2.48522771417825       -2.62516952248418       -0.02369407566053
H            1.42968335236999       -2.98459782714223       -0.03458940213358
