25
 energy: 3.579337785095 xtb: 6.6.1 (8d0f1dd)
C            3.43409580857136        1.10006876420314        0.10274217754800
N            2.34618882261131        0.15905428955488        0.00309317294884
C            2.56288370957011       -1.22530874161568        0.00069195692245
N            1.33751161264455       -1.85220030738775       -0.03168568998562
C            0.36923293785105       -0.92239159328322       -0.02991354200918
C            0.91217398872895        0.35861550615539       -0.00356678131387
C           -0.01743315649242        1.46617322531885        0.02209385464608
O            0.29655813437617        2.65100019534571        0.03879088119807
N           -1.46526882084334        1.08127498834870       -0.03839664388408
C           -2.44765031206665        2.14063115722756       -0.04477860577733
C           -1.97247442215007       -0.17226420667528       -0.09691484947943
O           -3.13749810535799       -0.48897003044566       -0.12395716400773
N           -0.96915555804720       -1.19220710175305       -0.05007015341308
C           -1.37143287475621       -2.58315258279568       -0.04606829496282
H            3.89407146367928        1.13740668103203        1.11922777257923
H            4.28871437577924        0.77716121175519       -0.53856875133935
H            3.08622406446064        2.08493561164672       -0.19894758175808
H            3.50297740745011       -1.76344675935661        0.00564069314118
H           -1.85131093302198        3.05178840703787       -0.00836619460161
H           -3.06954005993527        2.10276681472040       -0.94425697077656
H           -3.13537099635942        2.06181410079950        0.80532500531474
H           -1.02781676205968       -3.11368134018749        0.84576112107912
H           -1.01463902518413       -3.10197211643341       -0.94002343109280
H           -2.44810865919667       -2.58584603101032       -0.03280120615389
H            1.21020916304731       -2.85851604056806       -0.03435557611846
