25
 energy: 0.000000000000 xtb: 6.6.1 (8d0f1dd)
C            3.23720163006194        1.16630919979326        0.08434469647475
N            2.29877817382611        0.07527477071623        0.03981603040599
C            2.58028210190900       -1.21425402444508        0.03006176031096
N            1.43813958087363       -1.93419271955128        0.00098261760884
C            0.39035688448383       -1.05887472636071       -0.00790371836672
C            0.93510056364412        0.21347819449412        0.01709077491437
C            0.09450143893243        1.40504303904423       -0.00410947031874
O            0.49712751527797        2.54126714362870       -0.00342325688240
N           -1.25076640035757        1.06271879480407       -0.03085478223738
C           -2.21907211982101        2.15522099834493       -0.05001256985998
C           -1.81739487048744       -0.20012725993278       -0.04692818574614
O           -2.99983886758376       -0.37846417018721       -0.07008878229737
N           -0.92618586207120       -1.30210215599479       -0.03682761578324
C           -1.46982264913417       -2.64643102187190       -0.06029820460571
H            3.71247264356769        1.21471455160235        1.06488849150277
H            4.00791497605742        1.03430808813993       -0.67357694370751
H            2.69910007168542        2.09770118228144       -0.09130154882931
H            3.56654120610678       -1.63682992603973        0.04233140067262
H           -1.67107961066214        3.09322851271934       -0.02552706933167
H           -2.82428953597071        2.09428624779827       -0.95318082946668
H           -2.87644029173232        2.07745725625962        0.81450067533302
H           -1.17061996399332       -3.19584890659852        0.83242232437030
H           -1.14560257411436       -3.17511610292205       -0.95688275822323
H           -2.55549792440841       -2.55659984320617       -0.07459039797972
H            1.38130855184625       -2.94313852034425       -0.01389874181052
25
 energy: -2.261267330502 xtb: 6.6.1 (8d0f1dd)
C            3.28233462592905        1.16970496624438        0.05926641585339
N            2.31046875174968        0.10579475492479        0.01504697462056
C            2.59091952118844       -1.22306011121427        0.02360962164769
N            1.41897614103927       -1.93009230949560       -0.00105509954070
C            0.38767979024185       -1.04743689637134       -0.01047088066957
C            0.92451971124088        0.23315682772160        0.00682290020051
C            0.08192971139327        1.40023849477117       -0.00279326074494
O            0.46975122668742        2.56839973953232        0.00245238857292
N           -1.28018893767839        1.04987917363286       -0.02957372266383
C           -2.24866734361068        2.14061189841226       -0.04807284510854
C           -1.83817614694843       -0.20362570118156       -0.04728254069725
O           -3.03392917709048       -0.39163872716897       -0.06992057828730
N           -0.94329765653379       -1.29893000041887       -0.03604736107786
C           -1.47869594286809       -2.64355615384716       -0.05605522673306
H            3.76737008811323        1.19760783463127        1.01658209682491
H            4.19038337960451        1.03929607039899       -0.58602990385910
H            2.73896382715049        2.10634287832449       -0.09369438315586
H            3.56723901883414       -1.64922161181957        0.03924703906667
H           -1.69623182303306        3.07718359781188       -0.02307362296878
H           -2.85491253378401        2.08416317930031       -0.95197244539568
H           -2.90733098743383        2.06612195943673        0.81674907743668
H           -1.17774253448601       -3.19185309124267        0.83865798217815
H           -1.14793972825597       -3.17768710583012       -0.94900233333866
H           -2.56475366864900       -2.55828612697628       -0.07376112893275
H            1.35354535513575       -2.93408493740464       -0.01259526708031
25
 energy: 7.819905806492 xtb: 6.6.1 (8d0f1dd)
C            3.35471432944422        1.16153014898023        0.03211519901251
N            2.32777835221963        0.14033047725891       -0.02981508080332
C            2.59245954630211       -1.22247874848426        0.01015421475424
N            1.39512711595793       -1.91061713737953       -0.00484562161524
C            0.38340630261714       -1.02455687711388       -0.01613123154968
C            0.91564488591778        0.26503097859384       -0.01468209694603
C            0.06246019565447        1.39665383136430       -0.00357575343773
O            0.41451038515733        2.58733509704059        0.01403699885114
N           -1.32100745627307        1.03819327797407       -0.02806703713681
C           -2.29499882075933        2.12239360988965       -0.04499716997358
C           -1.86032986398025       -0.20773146833097       -0.04704862449696
O           -3.05994608678108       -0.41257981130519       -0.06983657067072
N           -0.96047538091524       -1.28939952039891       -0.03424312460614
C           -1.48632310819319       -2.63699067023835       -0.04848234637003
H            3.83858647947432        1.16302999522737        0.98097798132383
H            4.42160742431965        1.02650860481674       -0.47405944892856
H            2.82678945726927        2.11056070993766       -0.11034403653865
H            3.55826088711194       -1.65507725473610        0.03253670462925
H           -1.74449037634443        3.06048465619788       -0.01916519813011
H           -2.90379214845250        2.06615659942785       -0.94847380991537
H           -2.95641798548404        2.04606844218591        0.81871896680656
H           -1.18973070647744       -3.18345447708802        0.85041542742908
H           -1.15034778061103       -3.18073156560050       -0.93546909701868
H           -2.57368005435450       -2.55908330688350       -0.07275261412481
H            1.32240907511655       -2.91254698916377       -0.00993273439689
25
 energy: 15.062489267744 xtb: 6.6.1 (8d0f1dd)
C            3.42486966732178        1.14276044381790        0.02384927381829
N            2.34490346084223        0.15872796512650       -0.06418207784559
C            2.58728143549646       -1.21479395128290       -0.00594284724796
N            1.38397082366542       -1.89042583494808       -0.00937909412793
C            0.38073052385803       -1.00242535454777       -0.02320030843380
C            0.91652733920857        0.29198695493632       -0.03371983403591
C            0.04445455255517        1.40771252626182       -0.00541631934762
O            0.36531354820922        2.60540112097179        0.02365988394189
N           -1.34961737014427        1.03769302692236       -0.02826171811954
C           -2.33766865976099        2.10891261630588       -0.04446652401629
C           -1.87587625555172       -0.21061522240886       -0.04802436721985
O           -3.07387762355673       -0.43032378758768       -0.07151599262491
N           -0.96596092550871       -1.27904975942932       -0.03335652065199
C           -1.48696385535969       -2.62983553255740       -0.04025232035644
H            3.88613147765562        1.11655628407170        0.98437489448850
H            4.55298389725587        0.99970029314576       -0.42303746833743
H            2.93178076095924        2.11137069184822       -0.11581301974704
H            3.54888400863341       -1.65557685150743        0.02387133637627
H           -1.79992772617391        3.05357677009944       -0.01741966059994
H           -2.94796129016163        2.04513548307245       -0.94725173395279
H           -3.00146322908584        2.02310062619701        0.81737247193661
H           -1.19869448331729       -3.17082472330501        0.86484366884871
H           -1.14803368283835       -3.18157646193935       -0.92123719425555
H           -2.57543919764248       -2.55539759877603       -0.07188065309563
H            1.30586747137686       -2.89276112231528       -0.00657997924676
25
 energy: 16.550125803138 xtb: 6.6.1 (8d0f1dd)
C            3.46169393591479        1.12755305245365        0.02570126993034
N            2.35423178308290        0.16422132412808       -0.08319639196226
C            2.58185352751592       -1.20708374535887       -0.01863666713620
N            1.38232280964139       -1.87823147563603       -0.01222241742740
C            0.37925006367581       -0.98892787305184       -0.02760075891772
C            0.91881074709182        0.30643396876716       -0.04348502458122
C            0.03586983308488        1.41923713283645       -0.00688291857417
O            0.33884022236203        2.61520221594229        0.02938507969727
N           -1.36107181967696        1.04046921951013       -0.02960433004740
C           -2.35968340472926        2.10245236197962       -0.04598723256165
C           -1.88263720205203       -0.21174700282686       -0.04876305061905
O           -3.07784299095982       -0.43794076500486       -0.07348090423894
N           -0.96531767012192       -1.27270730530174       -0.03262247708433
C           -1.48421189120034       -2.62546221915004       -0.03434474227440
H            3.90543575509725        1.07774781018706        0.99312887287630
H            4.59485020069373        0.98261373427806       -0.41271915466283
H            2.99387127937270        2.10903199251942       -0.10721942998022
H            3.54305012203801       -1.65212947417636        0.01802225548140
H           -1.83493282256530        3.05381052596371       -0.01795180002902
H           -2.97031470236547        2.03108971501458       -0.94842365874940
H           -3.02456113841908        2.00797049411340        0.81463488679213
H           -1.20275117880942       -3.16075961200947        0.87591523068926
H           -1.14279705533095       -3.18171429848867       -0.91085076542619
H           -2.57308835843198       -2.55096510549996       -0.07170745504356
H            1.30134462302758       -2.88113606901688       -0.00405452000340
25
 energy: 15.606822158132 xtb: 6.6.1 (8d0f1dd)
C            3.46999872934152        1.12130203933038        0.02930287729782
N            2.35736261958526        0.16423610260402       -0.09336820159540
C            2.57904415494418       -1.20262378785653       -0.02602680554002
N            1.38373545359178       -1.87356736255419       -0.01284183500363
C            0.37869183101545       -0.98380121774136       -0.02897002252305
C            0.91989235886069        0.31110549778815       -0.04709647362419
C            0.03535360943148        1.42498487772974       -0.00855534871904
O            0.33043993628191        2.61879085918862        0.03248686665904
N           -1.36165956808467        1.04159481814992       -0.03129528337756
C           -2.36401007372979        2.10042684814187       -0.04755213752973
C           -1.88354343818310       -0.21203644336496       -0.04913661399816
O           -3.07713978666180       -0.43874611046241       -0.07430085373167
N           -0.96359530649170       -1.27062331738948       -0.03158980988296
C           -1.48187356784254       -2.62407068073701       -0.03140137393482
H            3.90752579452101        1.05601249718489        0.99771257479493
H            4.59080354497934        0.97889235029823       -0.41648159013464
H            3.01100195566024        2.10629270800437       -0.09631970728114
H            3.54079644145848       -1.64865113324103        0.01720669833346
H           -1.84536946721044        3.05470884508363       -0.01907411507409
H           -2.97456660639536        2.02609033792122       -0.94989686376693
H           -3.02886065463007        2.00250922504878        0.81285212752007
H           -1.20380262320270       -3.15635095728249        0.88127190215122
H           -1.13844107719306       -3.18188481979588       -0.90555552274806
H           -2.57074965455890       -2.54898733715865       -0.07202131521838
H            1.30118006244902       -2.87657523671780       -0.00231527692573
25
 energy: 14.761134164399 xtb: 6.6.1 (8d0f1dd)
C            3.46978396746203        1.11944652893591        0.03143825656205
N            2.35871950006246        0.16403396990538       -0.10426637694412
C            2.57785180724290       -1.20030901996771       -0.03226985795869
N            1.38476987652920       -1.87163719395027       -0.01254449122694
C            0.37851966021374       -0.98171352918811       -0.02926704399502
C            0.92010687265123        0.31299120545642       -0.05001354740775
C            0.03727533641572        1.42758169756598       -0.01025212877323
O            0.32738859701078        2.62099731854855        0.03460634106829
N           -1.36016879263181        1.04132980170753       -0.03281112082379
C           -2.36322871591081        2.09962311778695       -0.04875807888021
C           -1.88311765214791       -0.21224519812169       -0.04903476444148
O           -3.07616771730489       -0.43833906148343       -0.07419467843228
N           -0.96255836527590       -1.27021803516310       -0.02995994658038
C           -1.48043912772770       -2.62389358576182       -0.02938709326390
H            3.90448981348477        1.04120387432539        0.99998126157579
H            4.58199327998218        0.98088031692568       -0.41851479469379
H            3.01327159672752        2.10550937111484       -0.08682303909543
H            3.53985563402141       -1.64638152678718        0.01903280085596
H           -1.84656032124932        3.05471530963174       -0.02011073181597
H           -2.97381905801340        2.02474430934741       -0.95102014983633
H           -3.02773517739940        2.00096241338276        0.81183449135145
H           -1.20412094932422       -3.15489391451171        0.88432709190602
H           -1.13539324028691       -3.18226913679900       -0.90229243295900
H           -2.56922340552388       -2.54859470035155       -0.07203158760011
H            1.30072124892848       -2.87449573037697       -0.00063448244383
25
 energy: 14.390349958085 xtb: 6.6.1 (8d0f1dd)
C            3.46771349974722        1.11940611118463        0.03232758439980
N            2.35945659918217        0.16416380742694       -0.11636211930912
C            2.57768994102836       -1.19945508059375       -0.03848043697790
N            1.38523241544823       -1.87091579459707       -0.01182538677658
C            0.37858779676262       -0.98103609941137       -0.02899759799963
C            0.91996986262173        0.31375979391473       -0.05279945811115
C            0.03947740177599        1.42841432255685       -0.01158822963004
O            0.32654883950542        2.62213968233652        0.03558040965040
N           -1.35906753892390        1.04071698354644       -0.03390775000484
C           -2.36169016285899        2.09942962919140       -0.04966957595887
C           -1.88259585508200       -0.21234487593265       -0.04853362649446
O           -3.07567078805536       -0.43808774553746       -0.07357315256656
N           -0.96214737159724       -1.27042569891218       -0.02786537973760
C           -1.47972285455957       -2.62411595442220       -0.02776112361925
H            3.90025842249237        1.03047384341556        1.00096404134595
H            4.57725141102590        0.98565757882616       -0.41749382015226
H            3.01103390023618        2.10598123326999       -0.07871065996090
H            3.53955368205569       -1.64522089511185        0.02215049309785
H           -1.84486307807885        3.05438058768890       -0.02102465796845
H           -2.97240717902902        2.02486860049096       -0.95183501730453
H           -3.02589256625192        2.00115850448208        0.81118773503277
H           -1.20427807868050       -3.15496734479132        0.88623247372478
H           -1.13365031521994       -3.18255307579736       -0.90020334076704
H           -2.56842207232059       -2.54883008956401       -0.07154842140413
H            1.29984875671227       -2.87356942148795        0.00077091363905
25
 energy: 14.354664243021 xtb: 6.6.1 (8d0f1dd)
C            3.46570629105100        1.12007979069631        0.03259908427511
N            2.35969242686300        0.16435469069215       -0.12707459808272
C            2.57823165340520       -1.19956759212166       -0.04425165535279
N            1.38547379011291       -1.87093156327407       -0.01086776648072
C            0.37885947572833       -0.98130041982287       -0.02823345527051
C            0.91983829838937        0.31364916098364       -0.05472170642922
C            0.04102719853926        1.42819199830746       -0.01250293648702
O            0.32719648078646        2.62218887091216        0.03528454089340
N           -1.35874636821155        1.04035906815817       -0.03448796292536
C           -2.36060975388971        2.09971201601447       -0.05026149495186
C           -1.88218748449778       -0.21227673621775       -0.04789363120338
O           -3.07548631822287       -0.43815500151817       -0.07285021712273
N           -0.96203106813497       -1.27078606614190       -0.02569772783047
C           -1.47954866554471       -2.62435611107629       -0.02660123638901
H            3.89644656650264        1.02356802169984        1.00124297015964
H            4.57624167390904        0.99111956967439       -0.41528177835117
H            3.00758399901648        2.10682802048160       -0.07258857176383
H            3.53970152824150       -1.64474760240428        0.02593019415523
H           -1.84265791221717        3.05414624661014       -0.02177543939405
H           -2.97145071281464        2.02562896744422       -0.95233968739884
H           -3.02464763008941        2.00222932421485        0.81079976053782
H           -1.20429762697196       -3.15585310649564        0.88711028965405
H           -1.13319492335628       -3.18245506279377       -0.89925837941596
H           -2.56821094646087       -2.54914216455949       -0.07067230690853
H            1.29928469580298       -2.87345571729154        0.00142760823021
25
 energy: 14.448663830824 xtb: 6.6.1 (8d0f1dd)
C            3.46499087625637        1.12058416206844        0.03265168570102
N            2.35948773703810        0.16448348448205       -0.13195333393119
C            2.57883497262946       -1.19994085050002       -0.04784274245519
N            1.38563731491089       -1.87118132977752       -0.01014206970576
C            0.37912712785459       -0.98180926849574       -0.02739276661173
C            0.91986761786051        0.31317630928562       -0.05500235067833
C            0.04127214741207        1.42770098068534       -0.01287922623138
O            0.32815837077695        2.62170110093382        0.03439210974898
N           -1.35902244937921        1.04043900849086       -0.03451279223550
C           -2.36049208287575        2.10007237935695       -0.05045043937915
C           -1.88203851231318       -0.21213516911157       -0.04752641845785
O           -3.07544995195463       -0.43838445817738       -0.07258849975313
N           -0.96200016446838       -1.27091839652345       -0.02438078302669
C           -1.47966545230694       -2.62438374314244       -0.02616753706979
H            3.89497872911381        1.02096198713483        1.00113719702380
H            4.57710599457926        0.99401363674451       -0.41411244501063
H            3.00580389298394        2.10734511997883       -0.07008529020357
H            3.53994879847430       -1.64451868427526        0.02893276836333
H           -1.84175369733485        3.05418154265825       -0.02214653009687
H           -2.97137181391066        2.02616043259240       -0.95249552169348
H           -3.02453046964092        2.00306779470974        0.81065980467159
H           -1.20418489397646       -3.15662560387524        0.88709177489370
H           -1.13358975253481       -3.18204264633334       -0.89932050168184
H           -2.56834489983053       -2.54919681444671       -0.06993628315275
H            1.29944522857233       -2.87372237229096        0.00110408711973
25
 energy: 14.570483317610 xtb: 6.6.1 (8d0f1dd)
C            3.46466026040850        1.12108202155327        0.03282884379813
N            2.35878694657041        0.16474025585864       -0.13676909960607
C            2.57968378712042       -1.20039850610433       -0.05409553024076
N            1.38594142548411       -1.87151389292870       -0.00904191762102
C            0.37951242478061       -0.98251321883088       -0.02576817404752
C            0.92005805407842        0.31238792104724       -0.05426181107483
C            0.04078265704276        1.42699969865217       -0.01330037407785
O            0.32956932133964        2.62083870705831        0.03270856214050
N           -1.35961048743422        1.04084095967233       -0.03424044117261
C           -2.36083152309448        2.10056347244633       -0.05062009964422
C           -1.88191218839445       -0.21188547563211       -0.04714197365763
O           -3.07535326435107       -0.43874556252454       -0.07270069819733
N           -0.96187831390585       -1.27086312364378       -0.02249581400357
C           -1.47986288859751       -2.62423619027538       -0.02571456386737
H            3.89416194029663        1.01758596468415        1.00083286035986
H            4.57843111897427        0.99690452210042       -0.41365206874980
H            3.00453262113911        2.10796638672235       -0.06737153638168
H            3.54022921804343       -1.64379306159224        0.03477423311397
H           -1.84143016136745        3.05442915544350       -0.02259523529902
H           -2.97169239339588        2.02661086214325       -0.95266291159014
H           -3.02497301842646        2.00398841947379        0.81045737729859
H           -1.20384612999094       -3.15763552106012        0.88675334447124
H           -1.13443547654653       -3.18108439854331       -0.89977719111710
H           -2.56859450960812       -2.54904980672561       -0.06879902300811
H            1.30028524777089       -2.87419098682274       -0.00031286167833
25
 energy: 14.561767459039 xtb: 6.6.1 (8d0f1dd)
C            3.46502336853389        1.12094672899837        0.03301186753107
N            2.35815475158649        0.16506766705678       -0.13767899490560
C            2.57987978611921       -1.20036688831713       -0.05982379902017
N            1.38607115887328       -1.87146623771013       -0.00861506458380
C            0.37961258509397       -0.98250911205386       -0.02460197726748
C            0.92023687362630        0.31222641435610       -0.05305565489112
C            0.03993891119860        1.42687371553323       -0.01338851597693
O            0.32978579221490        2.62056993983962        0.03191426091317
N           -1.35975752550725        1.04113362881619       -0.03386968505940
C           -2.36120262088387        2.10060130217775       -0.05070030764270
C           -1.88190803802285       -0.21181107365984       -0.04709535650591
O           -3.07524847578318       -0.43879143080057       -0.07333783954584
N           -0.96173582119418       -1.27059296177623       -0.02145606279275
C           -1.47983488986392       -2.62403849204405       -0.02543761977739
H            3.89489217262486        1.01511019975646        1.00045365738668
H            4.57845965234663        0.99721681205717       -0.41477596259006
H            3.00526808915943        2.10805649386709       -0.06604516937562
H            3.53997628274532       -1.64272178801257        0.04027424261301
H           -1.84213257973069        3.05463143879589       -0.02275539182824
H           -2.97195236646851        2.02634405255941       -0.95281057576397
H           -3.02548380802957        2.00391547923961        0.81026360653185
H           -1.20359045785425       -3.15784394647599        0.88668444692338
H           -1.13464147374397       -3.18043198726594       -0.89990223010567
H           -2.56859065404556       -2.54882873797531       -0.06830329283614
H            1.30099395494116       -2.87426261479004       -0.00191468528301
25
 energy: 14.427518164298 xtb: 6.6.1 (8d0f1dd)
C            3.46539712876305        1.12033139127184        0.03335209774405
N            2.35662420455946        0.16614181792738       -0.14122642284960
C            2.58017148072294       -1.20030439588833       -0.08150894496489
N            1.38617401568218       -1.87114317488131       -0.00830183576556
C            0.37977045107673       -0.98198432154263       -0.02138713616678
C            0.92064253311278        0.31226889688005       -0.05042130444388
C            0.03808255261224        1.42687512286460       -0.01335836901352
O            0.32962193584786        2.62033596068183        0.03056459371430
N           -1.35938763181585        1.04157596877809       -0.03279434536898
C           -2.36153389816509        2.10043009977877       -0.05104557326384
C           -1.88176004514432       -0.21182403491308       -0.04685384817672
O           -3.07491686118230       -0.43851291498712       -0.07520065911329
N           -0.96131158508980       -1.26994957225152       -0.01829177992643
C           -1.47947362400592       -2.62367157406023       -0.02417673408103
H            3.89649232415434        1.00665910112796        0.99922804241566
H            4.57731757816478        0.99866141219186       -0.41813791241148
H            3.00700197195315        2.10821466051175       -0.06089961226792
H            3.53841032300799       -1.63902126902307        0.06040260658165
H           -1.84356348531015        3.05495901214146       -0.02322767005475
H           -2.97183994819088        2.02529775034034       -0.95342168695132
H           -3.02623129494598        2.00342901898370        0.80957029061065
H           -1.20312161300346       -3.15814791017038        0.88735690887571
H           -1.13424421643901       -3.17905271424230       -0.89926257774627
H           -2.56822870580216       -2.54842203328431       -0.06720217265436
H            1.30212107737366       -2.87411769606335       -0.00672205857408
25
 energy: 14.368311269720 xtb: 6.6.1 (8d0f1dd)
C            3.46527233412959        1.12003028313012        0.03322183901898
N            2.35633070606495        0.16634688831436       -0.14078843011842
C            2.58032486506041       -1.20065078990281       -0.09022922803570
N            1.38605689865042       -1.87113311080208       -0.00891446193016
C            0.37986068357824       -0.98174156247823       -0.02046405432241
C            0.92078648346615        0.31228802539104       -0.04974675183473
C            0.03771924965040        1.42691955642591       -0.01290681996288
O            0.32941362154335        2.62027616321721        0.03069609899803
N           -1.35899186153083        1.04159160995111       -0.03237082180258
C           -2.36140840259204        2.10031592848573       -0.05109296921342
C           -1.88160419363815       -0.21193203263825       -0.04673950105737
O           -3.07475764004635       -0.43829963106711       -0.07570455114601
N           -0.96109475548785       -1.26983706820407       -0.01760104570670
C           -1.47927174876178       -2.62362183947216       -0.02382630157469
H            3.89716584104052        1.00544699777961        0.99865276236208
H            4.57675646553203        0.99863704170707       -0.41918432671341
H            3.00729398756174        2.10807054627197       -0.06010075329602
H            3.53692711385386       -1.63738232618017        0.06839802972175
H           -1.84377628823282        3.05499497554633       -0.02330195208574
H           -2.97150164062149        2.02487963065420       -0.95358201962410
H           -3.02625516478841        2.00322559269732        0.80938605941063
H           -1.20316292464786       -3.15808373966181        0.88773485957324
H           -1.13379364929092       -3.17890672918310       -0.89884228941915
H           -2.56800852727594       -2.54834492053586       -0.06719290347379
H            1.30193321471903       -2.87406088727432       -0.00846657162010
25
 energy: 14.222790744545 xtb: 6.6.1 (8d0f1dd)
C            3.46476536559476        1.11950384792555        0.03269856364791
N            2.35629417390146        0.16639141624018       -0.14010596990587
C            2.58073708341168       -1.20161290471639       -0.10552184206099
N            1.38576893391920       -1.87114165567085       -0.01088059601097
C            0.38006650597914       -0.98127583465636       -0.01955155737101
C            0.92099615506187        0.31236827038431       -0.04975476864323
C            0.03779263398521        1.42716552255203       -0.01200511305426
O            0.32883296073939        2.62037115747504        0.03175706911173
N           -1.35821019198637        1.04145171961055       -0.03191185250224
C           -2.36097792260751        2.10010562871109       -0.05105384780810
C           -1.88125227638563       -0.21216901220686       -0.04643571563963
O           -3.07445395828338       -0.43796900361678       -0.07587850811835
N           -0.96063176028765       -1.26979662013248       -0.01697132148878
C           -1.47882978603096       -2.62362792989981       -0.02328059378446
H            3.89753142695976        1.00463404586766        0.99807944988467
H            4.57565704451664        0.99848073853203       -0.42024386135076
H            3.00738550090442        2.10784798420602       -0.05965579467931
H            3.53409909019480       -1.63478337251997        0.08307313483838
H           -1.84370789141256        3.05494097427762       -0.02332384913432
H           -2.97081095532981        2.02428174495398       -0.95364932445840
H           -3.02591168296548        2.00292953271307        0.80931481336402
H           -1.20341086981857       -3.15782529672277        0.88857547325794
H           -1.13275725930333       -3.17907409507391       -0.89788210048878
H           -2.56751904967680       -2.54828435472234       -0.06744414088816
H            1.30076139685595       -2.87388390133858       -0.01091385056970
25
 energy: 14.180851692801 xtb: 6.6.1 (8d0f1dd)
C            3.46436096098489        1.11944161352714        0.03208995587674
N            2.35700171444000        0.16578416300250       -0.13830362888048
C            2.58102146990924       -1.20232440074868       -0.10533081271462
N            1.38558499504730       -1.87130748465143       -0.01230481209803
C            0.38014697420351       -0.98127578792225       -0.02050263780800
C            0.92097630428165        0.31233617776567       -0.05103135942260
C            0.03883812920410        1.42733641059587       -0.01144683958104
O            0.32855840496389        2.62051598079923        0.03327078430941
N           -1.35797833824670        1.04117836812924       -0.03226538598135
C           -2.36058620189330        2.10006575163690       -0.05080942606817
C           -1.88109827766099       -0.21226559562693       -0.04633242734563
O           -3.07438244306930       -0.43799415291943       -0.07490706936329
N           -0.96045792327556       -1.27004326097185       -0.01818972899256
C           -1.47870366112551       -2.62376500934808       -0.02363629687433
H            3.89670351173570        1.00847269660975        0.99836291504951
H            4.57537105019869        0.99746767604079       -0.41925150059607
H            3.00673677414063        2.10759684577446       -0.06228540730630
H            3.53308178449672       -1.63488875200270        0.08387472224832
H           -1.84304010264410        3.05476983638333       -0.02302945836109
H           -2.97058042604863        2.02448973050927       -0.95328128491576
H           -3.02529605163437        2.00294831146511        0.80972192986797
H           -1.20371808794373       -3.15751740246144        0.88864737492647
H           -1.13237841640722       -3.17976964201068       -0.89774050632972
H           -2.56736940420690       -2.54835446087841       -0.06812395437544
H            1.29942192848619       -2.87386901052535       -0.01016124911664
25
 energy: 14.158280562103 xtb: 6.6.1 (8d0f1dd)
C            3.46427433559062        1.11955145842475        0.03178250420317
N            2.35728773753450        0.16555267203133       -0.14053359774161
C            2.58131148812911       -1.20256525315046       -0.10631399291909
N            1.38566400131352       -1.87132985622620       -0.01275126823093
C            0.38020440640362       -0.98140065754967       -0.02088694159174
C            0.92095040154456        0.31228579931772       -0.05204243050734
C            0.03946899976483        1.42738550307490       -0.01156368478201
O            0.32861273289733        2.62059920356226        0.03377055797835
N           -1.35820156252886        1.04111896871937       -0.03262440508138
C           -2.36055969383535        2.10015718869392       -0.05068391024119
C           -1.88110305398327       -0.21218361843978       -0.04614428551680
O           -3.07440039168969       -0.43823414870653       -0.07413073400305
N           -0.96040736010166       -1.27014662493817       -0.01839741779135
C           -1.47871874009860       -2.62379463177317       -0.02367841180906
H            3.89538211064334        1.00880559550726        0.99874443465639
H            4.57560031557225        0.99794197850142       -0.41821315029249
H            3.00631520892169        2.10771317829492       -0.06275936838621
H            3.53367736464181       -1.63544373777704        0.08623574450545
H           -1.84266778647635        3.05471040298951       -0.02289636502090
H           -2.97080911577051        2.02486050908874       -0.95300092508875
H           -3.02504978835244        2.00315205398011        0.81003491169234
H           -1.20371536951828       -3.15764396207243        0.88858336611096
H           -1.13253623318018       -3.17985045711788       -0.89782374117839
H           -2.56739216603882       -2.54834215901077       -0.06804028742964
H            1.29902682655310       -2.87387080325211       -0.00963270538743
