72
 energy: -99.351727364063 gnorm: 0.004009442422 xtb: 6.6.1 (8d0f1dd)
N           -1.55716677041834        3.15076031622895        1.69566513605176
C           -2.32077803678810        2.16552494250144        1.59916678912619
C           -3.18611387350707        1.95313297793902        0.38590625364138
C           -3.64662182940239        0.51771607016899        0.38502298062444
C           -4.53651699971437        0.01468720733852       -0.57263189615734
C           -4.94700190189243       -1.30888124800955       -0.55022916930970
O           -5.81474413141312       -1.86547906011429       -1.41990996823436
C           -6.42562775038789       -1.05499026896922       -2.39710149130568
C           -4.45055216100719       -2.19750595653098        0.44698946581609
O           -4.90143194594934       -3.46030751836698        0.38008122481368
C           -4.51203837163746       -4.39290558846308        1.36103628807233
C           -3.55158927323939       -1.70132992716327        1.39478589320655
C           -3.20360758635309       -0.38530138085179        1.31336204643069
C           -2.40571085947403        2.27497034112599       -0.90954074725796
C           -1.44529009674087        1.17025128381834       -1.35210526697427
C           -0.33857549590237        0.90282061220735       -0.32931566189239
N            0.60556961649447       -0.08241284342318       -0.79545660899231
C            1.97211138516876        0.03946186681429       -0.35204600842397
C            2.96144493020451       -0.39199981114449       -1.45316812493112
C            4.37553860922229       -0.18504855253174       -0.99781180379790
C            5.02303844977701        1.02390676273469       -1.21980809491416
C            6.32026841992441        1.22937372343432       -0.78097571210929
C            7.00374231019339        0.22842824395785       -0.10119273790082
O            8.25805524116580        0.31439293632524        0.37079943392719
C            8.98860500588733        1.50529835809439        0.18536604249589
C            6.34959364566236       -1.01613233757388        0.13305875444959
O            7.08443066812073       -1.93065426604110        0.79048802416672
C            6.54111655503027       -3.20365496924292        1.04981709865763
C            5.04914105485155       -1.19538419176319       -0.31668199405168
C            0.08042674644821       -1.42348580423716       -0.85163451463891
C           -4.42841537518214        2.89442147144511        0.52177822292724
C           -5.14236632880910        2.65239574031261        1.85181314455502
C           -4.07181883551939        4.36900515155156        0.37574385148010
H           -4.90441882265428        0.68128150839323       -1.33601346504668
H           -6.99540157564997       -0.23947900176724       -1.94133333711719
H           -7.10542036637962       -1.71161534036745       -2.93637229364190
H           -5.69020375868450       -0.64386075582315       -3.09579811211459
H           -4.80417434969220       -4.06558090376710        2.36329927502349
H           -5.03883425580894       -5.31269488973855        1.11407636832665
H           -3.43311920278688       -4.57568064352268        1.33359946234225
H           -3.15305147097151       -2.34214154255649        2.16537331223966
H           -2.45951259221861        1.39121834788496        2.38158968965838
H           -3.12184018737120        2.44370511605280       -1.71506695425824
H           -1.84889253290840        3.19578114222957       -0.74331421980775
H           -2.00454376885800        0.25206293277695       -1.53443856082985
H           -0.97913903912168        1.47181586368235       -2.29162432329643
H           -0.80430492631267        0.56949286669871        0.61387012102057
H            0.18832906711838        1.83846555811281       -0.13394973915312
H            2.15923663323851       -0.56043849897954        0.55212929555309
H            2.16987011224728        1.08474743229646       -0.10705756665086
H            2.76195516156383        0.20359418445419       -2.34426237893905
H            2.80408289310510       -1.44177188417662       -1.70138359571199
H            4.51468544524005        1.81376412388246       -1.75088673812928
H            6.79806098246226        2.17535922731252       -0.97686137409968
H            8.49405692499635        2.35646436926042        0.66272947057991
H            9.14103253998687        1.71918920579553       -0.87665670347544
H            9.95225837112827        1.33370505037989        0.66129441500377
H            7.32426382410551       -3.75553120838962        1.56619692998065
H            5.65890319082752       -3.13891022314510        1.69426897784594
H            6.28124698811448       -3.72469569322909        0.12341966656729
H            4.54808178302393       -2.13582981330573       -0.14813405632452
H           -0.59080708178763       -1.52657025565353       -1.70446829906999
H           -0.48268997552476       -1.67327722608831        0.05768149879643
H            0.88850168058101       -2.13988165622842       -0.96775140358294
H           -5.11660094027789        2.62594904405675       -0.28637037461835
H           -4.54859837422261        3.02968359534908        2.68123636779949
H           -5.33019110399508        1.59221800175620        2.00984498240135
H           -6.09776047268799        3.17126051752237        1.85882799197002
H           -3.23554004175782        4.62789868476009        1.02087692028570
H           -3.80870155958719        4.61629994279910       -0.64868867182151
H           -4.92732264831497        4.97687736430974        0.65993573116174
H           -1.02409596797988        3.27019069789408        2.55017568417976
