25
 energy: 59.417132503905 xtb: 6.6.1 (8d0f1dd)
C            4.08882053202832        0.77947330179985        0.09240061568589
N            3.03377056029587       -0.18085741079809        0.04260724968018
C            3.16432643502878       -1.51711107026007       -0.08392825426408
N            1.93332965969299       -2.09240750299849       -0.07465635983958
C            0.93018325861804       -1.13156667325308        0.06687800667210
C            1.66652777766115        0.13438563176812        0.14656007790834
C            1.16811671037577        1.34713947705765        0.27554708414806
O            0.66702849774198        2.41108511253092        0.39278924856235
N           -3.54196842759950        1.32060462750818       -0.24480592318676
C           -3.75899436175199        2.70791219466891       -0.15292528810824
C           -3.91265668156980        0.19977517803544       -0.20127526549364
O           -4.09351182170030       -0.94786125689887       -0.20449702982143
N           -0.33073256921637       -1.25071530936104        0.11608315396259
C           -1.01469034617998       -2.50816754361926        0.03295595047122
H            4.12059044709525        1.26536119556679        1.07182311850761
H            5.04408789851690        0.28997436179294       -0.09196418378036
H            3.92700793044760        1.54665798457309       -0.66880785681761
H            4.09282367707600       -2.02731426905040       -0.17947209607430
H           -2.78374190699032        3.19419742351422       -0.12269046345181
H           -4.30927094772311        3.06351793393435       -1.02720375960410
H           -4.31625538015818        2.96164826273566        0.75163883358777
H           -0.80097324039405       -3.14232859822085        0.90073496037344
H           -0.76120101515472       -3.06455539076124       -0.87687517666744
H           -2.08160403750620       -2.28778931736640        0.02148367172233
H            1.78120165633705       -3.08202955415447       -0.15536640197685
