25
 energy: 79.600100162518 xtb: 6.6.1 (8d0f1dd)
C            3.72739498287694        0.91554378641633        0.10381044012584
N            2.54243862717060        0.13213082812195       -0.07210425039617
C            2.64969657147994       -1.22468186760222       -0.22018610017730
N            1.41972228826303       -1.79427059552030       -0.24004312406547
C            0.43410656644101       -0.85681853853185       -0.08255510196815
C            1.09653132817097        0.41005476238906        0.04142201561074
C            0.33345333332271        1.50724453465219        0.25521027986390
O            0.10912177962095        2.66339531268891        0.40183371236472
N           -2.03848353673146        1.15789893234363       -0.16588869259022
C           -2.91211928680219        2.26837414997223       -0.12081382185183
C           -2.51617516063764        0.02461259588874       -0.13923343542223
O           -3.36761789348627       -0.76874289627553       -0.15548810697161
N           -0.84776761029102       -1.08977944592567        0.00819584002736
C           -1.19086602043040       -2.51495786613378        0.02783677656144
H            3.96791618875419        1.32327280424464        1.09049757389184
H            4.55240113025846        0.18628773639861       -0.14486394648774
H            3.76702316988398        1.79672670999700       -0.52778197701442
H            3.53326325031574       -1.78133985195730       -0.31168175555327
H           -2.23536192654934        3.13444537343435       -0.04650499018490
H           -3.55798475960414        2.26838347256248       -1.01554849986944
H           -3.60744850933563        2.20174476997353        0.72447920149134
H           -0.80152908148690       -2.99500017801202        0.92947083868249
H           -0.82488819151668       -3.05089141529474       -0.85794296061753
H           -2.25605414262023       -2.64961581135059        0.08091334328795
H            1.23608364012102       -2.77664025306296       -0.27384876229406
