25
 energy: 64.389255621951 xtb: 6.6.1 (8d0f1dd)
C            3.98797759411233        0.75983812135176        0.12075119908861
N            2.86128881638213       -0.08552768037048       -0.01202700270486
C            2.99784166056168       -1.42330318965781       -0.14364856084307
N            1.77035144393291       -1.99784541102371       -0.13885623593534
C            0.77828456000754       -1.03187238615242        0.02021223536379
C            1.49284232245453        0.25357540229272        0.10642582105355
C            0.98883866542896        1.47502556541200        0.32304344485375
O            0.55578732404323        2.57284853060331        0.49016346182523
N           -3.14189557097622        1.24084209301256       -0.23417438696425
C           -3.56608455569701        2.56688828851554       -0.14053044142881
C           -3.59803499076086        0.15006352193896       -0.17701710817338
O           -3.88780662867529       -0.97071353117014       -0.17115811924867
N           -0.48501811162821       -1.16305979585800        0.07708810321057
C           -1.10666124971039       -2.45937099607556        0.05598815475604
H            3.93277280752086        1.48250572711915        0.92491075484231
H            4.81747803156594        0.10440863131542        0.38518519231881
H            4.26523336547876        1.22484767735804       -0.80773532137430
H            3.92470786580302       -1.93132952659718       -0.24782649147689
H           -2.69365535433735        3.21906024868665       -0.08967855733184
H           -4.17129661430494        2.78289322738287       -1.02425890558461
H           -4.18815271678356        2.69048396700528        0.75050249827862
H           -0.77791979408228       -3.00951729669490        0.93326203431928
H           -0.86443074997168       -3.00342047116215       -0.85169552669718
H           -2.18446058370496       -2.36789081596008        0.10527417730089
H            1.60812754652949       -2.98282673734199       -0.21719405501477
