25
 energy: 60.653248437500 xtb: 6.6.1 (8d0f1dd)
C            4.04113438896965        0.76176480092833        0.10383423413018
N            2.96269344884468       -0.14773613350821        0.01317494640055
C            3.10320885627697       -1.48813731307908       -0.10665526024664
N            1.87104323955594       -2.06135993975356       -0.09586622443971
C            0.87631151353241       -1.09580738535871        0.05209324611644
C            1.59508137337919        0.18595752835864        0.13331579698366
C            1.08711869395353        1.40283178231218        0.29388600820463
O            0.61686472714703        2.48276091184422        0.44750921615239
N           -3.40670929154068        1.29383317455008       -0.23708736277994
C           -3.68817808400459        2.66333840583430       -0.14430564586346
C           -3.82483444740864        0.18934975220457       -0.18998046379703
O           -4.04832592965260       -0.94961609807490       -0.18342408246538
N           -0.38677156957916       -1.21352831179083        0.10244394112076
C           -1.05640393021329       -2.48320430731992        0.04264003965670
H            4.01067222268735        1.35864488387275        1.01740285302858
H            4.95754750091287        0.17927666655781        0.12747396323661
H            4.09766620178720        1.41020133539851       -0.77495113705132
H            4.03342611908907       -1.99699671912835       -0.20167165636783
H           -2.76382881272326        3.24954688293660       -0.09162542053871
H           -4.26256611987229        2.95708093522198       -1.02480007271271
H           -4.27938570806419        2.86738243223011        0.75120937619220
H           -0.79343093810406       -3.08096172374732        0.91917504288442
H           -0.81563200644355       -3.03941080115196       -0.86810599358087
H           -2.13448747540097       -2.31264677912706        0.05375308241630
H            1.70772351058712       -3.04821909398043       -0.17664920266563
