25
 energy: 82.929760222803 xtb: 6.6.1 (8d0f1dd)
C            3.79627934235225        0.83186160040638        0.10857604552696
N            2.58375451277646        0.08382968172664       -0.04011838783123
C            2.70013892434904       -1.26985289823348       -0.26210108017879
N            1.48029156940912       -1.84803227360173       -0.25063414297388
C            0.49197507054266       -0.90775144843190       -0.07858321462074
C            1.16728679468563        0.36619894472510        0.03617597932056
C            0.48359253730859        1.49431432243771        0.26086860045861
O            0.14720389516482        2.60183433454802        0.52196032075942
N           -2.26661201901618        1.16709329197391       -0.18524521990855
C           -3.07282470678731        2.31753624303858       -0.13465667415906
C           -2.76619522101302        0.07325113064578       -0.14158673140647
O           -3.45832010029825       -0.84894316109907       -0.12393795482372
N           -0.77368810575009       -1.10390639200825        0.01484967377409
C           -1.14503781532499       -2.50411035155087        0.06183203485837
H            3.97015551591998        1.40904094806367        1.00952217713720
H            4.59256691978283        0.02780940000108        0.05819752873907
H            3.96039483594375        1.61505284174787       -0.62333996290274
H            3.59599052288618       -1.78717027330313       -0.41564962762309
H           -2.36600883187030        3.16256589442822       -0.05398140768033
H           -3.72524090921056        2.32343539879952       -1.02537630684521
H           -3.77383663429436        2.24250949676469        0.70906865362438
H           -0.73222704549152       -2.95972028878577        0.96411493739174
H           -0.76911798690480       -3.04501615434851       -0.81739031769910
H           -2.21762677790147       -2.60472541345204        0.14031496434046
H            1.32406447241749       -2.82602268235285       -0.30296220760326
