25
 energy: 82.696704156110 xtb: 6.6.1 (8d0f1dd)
C            3.76539552063949        0.86795438768397        0.10295686790199
N            2.56350253596025        0.10925308541156       -0.05009464165153
C            2.67633489614842       -1.24367419765317       -0.24868718885510
N            1.45329793977520       -1.81977008430445       -0.24668199531588
C            0.46479225279331       -0.88260321620209       -0.08076521253926
C            1.13573306831288        0.38880381520748        0.04619204436099
C            0.41898837511020        1.50521738556192        0.25715574790787
O            0.10852136189058        2.62958985912636        0.47549935410596
N           -2.15760908925766        1.16512678945581       -0.18078851291298
C           -2.99482069272018        2.29657384780594       -0.12950273452444
C           -2.64977389852639        0.05712928416487       -0.14349945843587
O           -3.41308061612232       -0.81207827374566       -0.13094376343553
N           -0.80659357073004       -1.09852822613523        0.01055359769827
C           -1.16215041281803       -2.51171249461208        0.04553832294482
H            3.97184784061446        1.36449086120653        1.05050018707935
H            4.57974086545071        0.09085888913150       -0.05426882266254
H            3.86176168436159        1.70461522655732       -0.57820787010014
H            3.55667000187674       -1.78846528061401       -0.38425035186527
H           -2.30227456863865        3.15037710436921       -0.04712373490065
H           -3.64367305043925        2.30207085445748       -1.02087906902118
H           -3.69311497553802        2.22332473567538        0.71323548472139
H           -0.76178326635115       -2.97915630180796        0.94779773756645
H           -0.79379579196039       -3.05078126923124       -0.83748195852671
H           -2.22900681490256       -2.63391118608261        0.11558605119639
H            1.28008073205983       -2.79916634396222       -0.29403701619557
