25
 energy: 78.075529451044 xtb: 6.6.1 (8d0f1dd)
C            3.87213017673290        0.77727146307109        0.15268949193904
N            2.67811590361449        0.00973722881021       -0.09010398209221
C            2.80531185237793       -1.34672223292516       -0.23735507047627
N            1.57945466798924       -1.91705448509203       -0.21881698385377
C            0.59185146139916       -0.96851635232056       -0.04295539085810
C            1.28944155026181        0.30416053221522        0.04142658138783
C            0.68379939117436        1.46189666080328        0.30714626250468
O            0.33268531061177        2.56813530658924        0.53135556654348
N           -2.57994377326203        1.16508192173456       -0.20029629530221
C           -3.26810736215019        2.38143870277283       -0.13503563785159
C           -3.08591295992179        0.09170778496259       -0.14217289024014
O           -3.60611256911890       -0.93418844876220       -0.14336938664231
N           -0.67284580324596       -1.10260262912241        0.03668390905745
C           -1.13891584377662       -2.45421778999992        0.09823124847667
H            3.92523516708026        1.59825347881162        0.88809589278698
H            4.58162789634391       -0.00231121108897        0.45041305920888
H            4.21989826141652        1.32318481852028       -0.72484297320010
H            3.72573856271109       -1.84844155290985       -0.33759177398027
H           -2.52253047788622        3.18952489950080       -0.06889982055665
H           -3.89138625475587        2.44689604981600       -1.02993613254535
H           -3.92618820217222        2.35469453975079        0.74162846336715
H           -0.67908040327790       -2.89031665464084        0.99430916553751
H           -0.76998218188693       -2.99741921869922       -0.78097041408882
H           -2.23351042991041       -2.49745649635172        0.16771122308238
H            1.45992748959116       -2.89791354066484       -0.27511708056642
