25
 energy: 48.611616963321 xtb: 6.6.1 (8d0f1dd)
C            3.63356166397126        0.98613714984794        0.10623494371697
N            2.45466341709645        0.17055853050364       -0.04677390186972
C            2.59012605180448       -1.20233391093209       -0.15075323255302
N            1.34688431138692       -1.77041287181062       -0.17792491249550
C            0.37752780602517       -0.82478177367891       -0.07801981591924
C            0.99184835298502        0.43994750673196        0.03115999903329
C            0.09493828931494        1.50946138058128        0.16970982186223
O            0.14969611584932        2.70258464974986        0.28976353004435
N           -1.78197627211832        1.13126474589221       -0.10102742948539
C           -2.72756550010428        2.20979391187506       -0.09129090541667
C           -2.21528774362494       -0.09359890143918       -0.13940453262993
O           -3.25954468949638       -0.65999035149721       -0.24275289071382
N           -0.95370420260920       -1.08700070530308       -0.02494730749268
C           -1.26335436755398       -2.52663203974113        0.00103961390237
H            3.95809256454762        1.21851069005087        1.13680015607603
H            4.48926578496014        0.38133645469545       -0.31043468394332
H            3.55505888892333        1.93525083986616       -0.40854711203396
H            3.48588768717501       -1.77975153755847       -0.20428174714630
H           -2.09718286464552        3.10190266569048       -0.03407183420041
H           -3.37192636337575        2.21503989599910       -0.98846000113967
H           -3.42997768678796        2.15946098322982        0.75206254382035
H           -0.87847463340226       -3.02289114060466        0.89873207679725
H           -0.89317435794307       -3.05836378255360       -0.88568470008041
H           -2.33028839736964       -2.64893682641460        0.03182233704411
H            1.17894390147819       -2.76849623500349       -0.19178302656150
