25
 energy: 80.900201415912 xtb: 6.6.1 (8d0f1dd)
C            3.85177580933618        0.77582734677496        0.13944676092392
N            2.64447588103869        0.02848584667265       -0.08728057138378
C            2.75665451108207       -1.32958928846775       -0.26848550671129
N            1.53316972726523       -1.89980270402870       -0.23333430105405
C            0.55428861945547       -0.94889799800534       -0.05122728903509
C            1.24774497767257        0.32102192609132        0.04075417264313
C            0.61598838473064        1.46622800369371        0.29883667307207
O            0.26498414349320        2.57117316494257        0.54010476048970
N           -2.47473787009429        1.16444427250149       -0.19459060864790
C           -3.21143468227866        2.35596593735763       -0.13476134672972
C           -2.98131934865730        0.08764796194121       -0.14027605158355
O           -3.55527123822057       -0.90909709337442       -0.13243928884275
N           -0.70927781251571       -1.10065996712137        0.03333323158872
C           -1.13136333441010       -2.47195494439840        0.08961891483915
H            3.94061006563184        1.52623955652884        0.92757017440352
H            4.59945380153426       -0.03042176658212        0.32910392580245
H            4.15004604023233        1.42176441382458       -0.68455154493250
H            3.67619067211823       -1.83229610208238       -0.35364093046969
H           -2.47845554260165        3.17909316280632       -0.06207356421655
H           -3.85728704230629        2.39166139888064       -1.02839185808637
H           -3.88525986390247        2.29813420488254        0.73710352774422
H           -0.69035475262596       -2.91436664959673        0.98689776696583
H           -0.74122923645610       -3.00820698865585       -0.78483590849637
H           -2.21953424423110       -2.53526987648747        0.16055008843819
H            1.41106967849038       -2.87877889693589       -0.29041355772187
