25
 energy: 19.503461074434 xtb: 6.6.1 (8d0f1dd)
C            3.53606850013021        1.04708267035043        0.10587249407757
N            2.39126495174117        0.17536742053304       -0.02364578846658
C            2.56958776882956       -1.20822589402903       -0.07255175049139
N            1.33404336167100       -1.80668535145855       -0.09710888814522
C            0.36696012297780       -0.86499942671114       -0.03773676572880
C            0.92709447107842        0.41575383439741        0.02807431342396
C           -0.03628663714309        1.49005075453677        0.12315499509169
O            0.19484198308287        2.68615435349644        0.17499773551366
N           -1.59754706687575        1.10610778838484       -0.04312927645871
C           -2.57787525473543        2.16621472595625       -0.06960628498547
C           -2.07005581079734       -0.14347202909855       -0.11394603540885
O           -3.19559700122820       -0.55300116625891       -0.20285150842815
N           -0.97492429085596       -1.13894186268933       -0.03725823162002
C           -1.32625956077942       -2.55638767403513       -0.01995394009702
H            3.92371195669768        1.12291869546544        1.14780387922146
H            4.41657904066012        0.59850241009992       -0.43898184364619
H            3.32598244443305        2.03475803441502       -0.29984860858356
H            3.48489565000041       -1.79338213593797       -0.11005932379859
H           -1.97462070351951        3.07268750609564       -0.03138724864568
H           -3.21553953330139        2.13927514136622       -0.96703730553193
H           -3.27184784244902        2.11212794436900        0.77731351885390
H           -0.96145802683819       -3.06930226359727        0.87614519628500
H           -0.96561391472234       -3.08688916338800       -0.90886757726045
H           -2.39942723193975       -2.61294667777459       -0.00338856633233
H            1.16407797558675       -2.80957940504812       -0.11197639477815
