25
 energy: 82.718218529140 xtb: 6.6.1 (8d0f1dd)
C            3.82635217772449        0.79930414337391        0.11710176206891
N            2.61374598039679        0.05184108398939       -0.07468924628042
C            2.72322909252578       -1.30857250029858       -0.27606775252524
N            1.50032040475528       -1.87952844185179       -0.24450555447698
C            0.52105236405110       -0.93049292278183       -0.06458786457046
C            1.20755845251640        0.34039386302672        0.03692800205346
C            0.55181119904136        1.47673019752831        0.28382341576166
O            0.20458125294784        2.58205706126052        0.53503757192862
N           -2.37352009554116        1.16724967798418       -0.18946390843497
C           -3.15081207997321        2.33537603397601       -0.13696530661546
C           -2.87675731512888        0.08277608342549       -0.14010618670207
O           -3.50649788130396       -0.88064073891636       -0.12842997150719
N           -0.74268460254229       -1.10334783890996        0.02426625193263
C           -1.13376993060675       -2.49057202172160        0.07613239286255
H            3.95573941918254        1.46201714206562        0.96804503070297
H            4.59838524690513       -0.01934972894559        0.18752715546446
H            4.06627499545518        1.52945884323265       -0.66051154647120
H            3.63642635445197       -1.81164413921997       -0.39394794796827
H           -2.42955779492854        3.17095610192815       -0.05776542258353
H           -3.80560910306386        2.35312372358774       -1.02971020034504
H           -3.85085401200592        2.26339571043596        0.71460633208773
H           -0.70818205928739       -2.93766299391750        0.97768990788298
H           -0.74770546938255       -3.03092373313955       -0.80002582795741
H           -2.21347735540036       -2.57035183635427        0.15675619173419
H            1.36590715306582       -2.85702348454620       -0.29890295003592
