25
 energy: 31.990791923656 xtb: 6.6.1 (8d0f1dd)
C            3.58878814543221        1.02012021825645        0.10447135932448
N            2.42055480387496        0.18155338632858       -0.03369609143944
C            2.57443216707132       -1.19797606505217       -0.11227614521097
N            1.33610098664019       -1.78055293193690       -0.13137190466395
C            0.36782103261273       -0.83721774936320       -0.05502567147684
C            0.95205130883054        0.43755790712047        0.03293453005044
C            0.00851069909944        1.49990798951300        0.14036432888630
O            0.17012004388552        2.69480804164119        0.23214802706671
N           -1.67775208325890        1.12052466262677       -0.07258105916021
C           -2.64917415877724        2.18621906635733       -0.07861705081409
C           -2.13165893724182       -0.11926326379199       -0.12856815295151
O           -3.22445032525943       -0.59840987418197       -0.23569897069054
N           -0.97210739307883       -1.10797695394403       -0.03300886794560
C           -1.29642564020130       -2.53854597234992       -0.01102689195710
H            3.96612819873198        1.16088526645613        1.14008135862535
H            4.45706893611571        0.49037346224097       -0.38278091305209
H            3.44846145568441        1.99662248378666       -0.35350832717962
H            3.47844463659206       -1.77871413014332       -0.14900188665607
H           -2.03690332655697        3.08578597790535       -0.02993090617306
H           -3.29207093791427        2.17204097682838       -0.97553181522450
H           -3.34937948227847        2.12606295304012        0.76548378822506
H           -0.92075533921711       -3.04377965698282        0.88597419922391
H           -0.92797879886494       -3.06977461428994       -0.89806720343793
H           -2.36643362580175       -2.63372225484539        0.00962715100700
H            1.17316928689478       -2.78326812845383       -0.14452368207525
