25
 energy: 69.743777911146 xtb: 6.6.1 (8d0f1dd)
C            3.94205786345646        0.76874720058910        0.15274595797094
N            2.78089718934893       -0.03104547561053       -0.05798702722805
C            2.92057540494547       -1.36734261408466       -0.17570805320328
N            1.70100946982034       -1.95466706763653       -0.18812212212599
C            0.69974605285961       -1.00662187467672       -0.01157329162226
C            1.40990223317450        0.27062806551710        0.06333171548416
C            0.86898570380154        1.46192169347348        0.32479602450920
O            0.50202841473786        2.56686813692130        0.54014007218142
N           -2.90631171881270        1.21042131768485       -0.22502861202774
C           -3.45913832346529        2.48987531562263       -0.13708007782376
C           -3.38090844044580        0.12531341042670       -0.16354338719656
O           -3.76238000462521       -0.96444861225126       -0.16125081440626
N           -0.56515806084711       -1.13784720973603        0.05310877866655
C           -1.14970036908522       -2.44941711632017        0.06787216438425
H            3.89948830084416        1.59010584808454        0.85967435583907
H            4.63646395915448        0.06790665214033        0.59455523670405
H            4.37390231564903        1.06624713756753       -0.80817488917238
H            3.84297311243382       -1.87372920919105       -0.26817875445312
H           -2.66571684310095        3.23187817372243       -0.09185197624345
H           -4.08655253678451        2.63444205761777       -1.02199636379708
H           -4.10159349349565        2.54659089923537        0.74745688433364
H           -0.75375668951630       -2.93921178963708        0.95540947976307
H           -0.85907808150622       -3.00445068463546       -0.82365410214394
H           -2.24144265235604       -2.41169112045653        0.12757328986664
H            1.56190897659205       -2.94274050035633       -0.25821847648788
