25
 energy: 10.471472129072 xtb: 6.6.1 (8d0f1dd)
C            3.48261501799598        1.07869191447503        0.10429110233196
N            2.36717319230287        0.16860628952904       -0.00497614123182
C            2.57102637211937       -1.21925220932155       -0.03337940013784
N            1.34066195555970       -1.83551323401683       -0.06666828489194
C            0.37182942489796       -0.89960331858176       -0.02762626054198
C            0.91431635430731        0.38422263104344        0.02322253546370
C           -0.04675878185823        1.47233725350346        0.09541569233847
O            0.24007890007625        2.66221501146621        0.13062810359379
N           -1.53172582067891        1.08844640259167       -0.03128337677624
C           -2.50810265624331        2.15543995943193       -0.06226119708434
C           -2.02132482451789       -0.16683726880864       -0.10326986910518
O           -3.17088110631681       -0.52213126853373       -0.16096454615723
N           -0.97096579932825       -1.17095685164572       -0.03894164269801
C           -1.35528526747741       -2.57285180798942       -0.03006859294029
H            3.91451947187885        1.14541768191174        1.13211856020387
H            4.35093781973270        0.69853083812447       -0.49244265499086
H            3.20213839870612        2.06432368310313       -0.25672469045131
H            3.50139377651748       -1.78082641122128       -0.05766609443367
H           -1.90961030315942        3.06342629113506       -0.02975283493348
H           -3.13919032365104        2.12843913128750       -0.95954817941926
H           -3.19509818248964        2.10754488889531        0.78793583910061
H           -1.00322074251534       -3.09497313734610        0.86463781316619
H           -1.00209414695040       -3.10225216925851       -0.92101460749329
H           -2.43113830988273       -2.59005139882766       -0.01852903557775
H            1.19403627191196       -2.84084696356609       -0.07740988605627
