25
 energy: -2.109384518368 xtb: 6.6.1 (8d0f1dd)
C            3.36559560993355        1.13252449149372        0.09370602662879
N            2.34165666467307        0.12670820165846        0.01917755175638
C            2.59673515430038       -1.25505541719556        0.00902714514761
N            1.37588282975677       -1.89955154782542       -0.02308081734098
C            0.38852357200364       -0.98500765858547       -0.01591191102630
C            0.92309279295394        0.29781053477307        0.01477508251832
C            0.02791424161653        1.41501250362989        0.04077276376004
O            0.36341629637548        2.60021521187781        0.05299324360771
N           -1.39886168845265        1.05062475246334       -0.03260310232007
C           -2.36056523730431        2.13968047279186       -0.05498287569778
C           -1.92159811135658       -0.19936116516224       -0.07560865779153
O           -3.10054434540303       -0.45906733557905       -0.10527587611484
N           -0.95514154447907       -1.23937043939750       -0.03611365551872
C           -1.41454942736316       -2.60799561032086       -0.04554267573187
H            3.82508509684569        1.20822763323278        1.09505858458338
H            4.20317224768672        0.89176666574271       -0.58788168119264
H            2.94473134440220        2.09548827299873       -0.17202640729302
H            3.55656741613892       -1.73286673695384        0.01408981394318
H           -1.77218428257700        3.05188187822008       -0.02786761598691
H           -2.98190934696697        2.11696387073760       -0.95381573693432
H           -3.03381125391325        2.09718235854989        0.80379844469401
H           -1.08708357544049       -3.14575092690415        0.84747980235426
H           -1.07383206631829       -3.13773739640281       -0.93901597728733
H           -2.49477051338789       -2.55539708818599       -0.04796744569947
H            1.27385150092159       -2.90443946350336       -0.03541786871558
