25
 energy: -5.697985321136 xtb: 6.6.1 (8d0f1dd)
C            3.30364754414527        1.15743155581459        0.08946827874818
N            2.32398806804612        0.11482385959002        0.03014651933668
C            2.60364660163029       -1.24655819330048        0.02948894509982
N            1.40152236630764       -1.92282647037121       -0.00680616821651
C            0.39649628937884       -1.02652044398045       -0.01080755544078
C            0.92363467467320        0.25791929591725        0.01515951545730
C            0.07414875711209        1.39433122676190        0.01652264987020
O            0.43417675908726        2.57558981332968        0.02107274729260
N           -1.33031989497919        1.04476030342164       -0.03249004143018
C           -2.28747927889438        2.14003665819927       -0.05249049720543
C           -1.86873428623724       -0.20063691537933       -0.05736557474313
O           -3.05966689927994       -0.41710570385558       -0.08118787533442
N           -0.94617967150805       -1.27154766510565       -0.03564143507083
C           -1.44504196857025       -2.62420571613600       -0.05405702538085
H            3.77137440695069        1.22462015573482        1.08117720361543
H            4.11235622621837        0.97555741232986       -0.63322315511575
H            2.81822886806246        2.10167124548438       -0.13193797776936
H            3.57446997902892       -1.68910052453057        0.03410271814232
H           -1.70693949195909        3.05724998924130       -0.02755706532836
H           -2.90207621443842        2.10861368467671       -0.95394861511497
H           -2.95379444384367        2.09111393197399        0.81020633819293
H           -1.12876737853473       -3.17134588095446        0.83720294511488
H           -1.11049596775251       -3.15437154750856       -0.94932375268869
H           -2.52749267777732       -2.54448042898131       -0.06246253501135
H            1.32360921072646       -2.92769624715201       -0.02114953560413
