  72
        -99.32687757
 N         -2.5060752447        3.4711318438        2.2968641243
 C         -2.5772608113        2.4316379860        1.6033839260
 C         -3.6646028991        2.1966740590        0.5872695285
 C         -4.0381181026        0.7261876528        0.5242658384
 C         -4.7708543009        0.2459878291       -0.5638961943
 C         -5.1504125774       -1.0824048120       -0.6588582659
 O         -5.8613037984       -1.6189020889       -1.6732729749
 C         -6.3828197534       -0.7731999534       -2.6710015350
 C         -4.7804483957       -1.9907442770        0.3694422854
 O         -5.1629540007       -3.2695201549        0.1818343623
 C         -4.8885555016       -4.2215749585        1.1828004149
 C         -4.0822027024       -1.5035695236        1.4628848781
 C         -3.7260488116       -0.1630739081        1.5423312982
 C         -3.0682497145        2.6735542159       -0.7653253696
 C         -2.0398957494        1.7169916979       -1.3952113058
 C         -0.7998885408        1.5968360913       -0.5905680945
 N         -0.2024373198        0.4646019211       -0.2411199286
 C          0.9039378922        0.4239677244        0.4896104324
 C          4.2012498410       -1.3366352240       -1.9820439738
 C          5.3953856675       -0.9832996688       -1.4012268505
 C          5.8242824499        0.3734354651       -1.3658924319
 C          7.0119267551        0.7298665588       -0.7827114001
 C          7.8444812758       -0.2318845264       -0.2001765425
 O          9.0170125273        0.0094868963        0.3926736747
 C          9.5114758186        1.3287250075        0.4596577363
 C          7.4411351373       -1.6077887188       -0.2230964688
 O          8.3142255160       -2.4527772667        0.3609319305
 C          8.0156048916       -3.8300512307        0.3817966414
 C          6.2519352471       -1.9583365150       -0.8088083763
 C         -0.7785189706       -0.8025847959       -0.6594641878
 C         -4.9697109545        2.9939706367        0.8947045068
 C         -5.5024348402        2.6548901345        2.2848941068
 C         -4.8196060643        4.5060953589        0.7579026242
 H         -5.0597331824        0.9282608957       -1.3460110860
 H         -7.0284236535       -0.0002517095       -2.2439397666
 H         -6.9732728243       -1.4173180539       -3.3193481257
 H         -5.5874367465       -0.3033012238       -3.2585001163
 H         -5.3639046952       -3.9549759135        2.1310004109
 H         -5.3091801741       -5.1568608064        0.8189515911
 H         -3.8116157614       -4.3442842107        1.3356936438
 H         -3.8188408358       -2.1600886070        2.2760952362
 H         -3.2162302945        0.1749782178        2.4308513668
 H         -3.8807811289        2.8115827877       -1.4788760568
 H         -2.5992693798        3.6445461983       -0.6072168580
 H         -2.5051305580        0.7487187089       -1.5672268633
 H         -1.7814715876        2.1403648072       -2.3746103731
 H         -1.8153840561        1.6390625921        1.6272059764
 H         -0.3134062803        2.5109742038       -0.2873342366
 H          1.3521099171       -0.5131110999        0.7436288292
 H          1.3557096560        1.3384301049        0.8213108711
 H          3.5687220177       -0.5973626778       -2.4374424390
 H          3.8755213488       -2.3604583945       -2.0186071347
 H          5.1974639090        1.1269381755       -1.8155368672
 H          7.3075435264        1.7670563487       -0.7764032136
 H          8.8347431314        1.9818267774        1.0189311315
 H          9.6791899177        1.7431994993       -0.5388388590
 H         10.4618798712        1.2579603860        0.9854962816
 H          8.8516817124       -4.3029919674        0.8924080375
 H          7.0911805175       -4.0292893523        0.9340988819
 H          7.9315282601       -4.2351415599       -0.6311571919
 H          5.9335158224       -2.9878303732       -0.8393556399
 H         -0.8431935038       -0.8455046133       -1.7459144785
 H         -1.7767708836       -0.9217894316       -0.2363020646
 H         -0.1527810584       -1.6210998329       -0.3154665098
 H         -5.7115358782        2.6577260837        0.1607471974
 H         -4.8324934752        3.0395031442        3.0484932329
 H         -5.6084568672        1.5802025538        2.4148702977
 H         -6.4781818735        3.1123728720        2.4255743322
 H         -4.0294078118        4.8631601911        1.4101816095
 H         -4.6031187566        4.8023561526       -0.2642917720
 H         -5.7518175788        4.9823271396        1.0520582275
 H         -1.7100896251        3.5676745101        2.9192354452
