25
 energy: -42.094286348224 gnorm: 0.009545627135 xtb: 6.6.1 (8d0f1dd)
C            3.16360368008022        1.39970253111034        0.01449399126881
N            2.33830170128054        0.26815142939789       -0.02499354887920
C            2.56970659513461       -2.28416281968932       -0.02078557610865
N            1.29377106059902       -2.22754170130789       -0.01095506348049
C            0.45752395050744       -1.11009845186376       -0.00793513662722
C            1.05387434677934        0.17164654125089       -0.00566242929664
C            0.13481940854611        1.35947666282013        0.00001251178536
O            0.55015689944958        2.49324667273605       -0.00104713352846
N           -1.20250112503246        1.05794344270819       -0.00057018672570
C           -2.15702307326855        2.16190445863028        0.00117828872933
C           -1.77464270130907       -0.20042428842106        0.00300377439415
O           -2.96282155524244       -0.36532982268241        0.00979951523684
N           -0.88681658558324       -1.28861912787965       -0.00125669883250
C           -1.47998666359367       -2.61313460555824       -0.00029311995422
H            3.63433324415410        1.46195324188970        1.00155203891879
H            3.95948053897571        1.27601831495486       -0.72324413869656
H            2.60660847956425        2.32413691598765       -0.17436305811263
H            3.22322139361182       -1.41961406427041       -0.03225825749237
H           -1.60529826678899        3.09834698020731        0.01149379271914
H           -2.78525201165191        2.10233949785722       -0.88737465618323
H           -2.79710843106776        2.08912545659854        0.88012087729927
H           -1.20568547699471       -3.16553300811310        0.90017467721591
H           -1.20236457093953       -3.16732922824708       -0.89851684625023
H           -2.56275824492753       -2.48136423727078       -0.00173167969517
H            0.79728892181724       -3.12260224924544        0.00032968019571
