  25
        -42.22312632
 C          2.9813497730        1.3039499275        0.0108534493
 N          2.1400738545        0.1382504505       -0.0057166052
 C          2.5276602158       -1.1231754480       -0.0098651683
 N          1.4520408972       -1.9394712244       -0.0041226483
 C          0.3261260971       -1.1610438035        0.0041148793
 C          0.7665562926        0.1643491287        0.0050238790
 C         -0.2449472452        1.1860567219        0.0005022948
 O          0.1215771715        2.4466854406       -0.0030728254
 N         -1.4887340112        0.8336139642       -0.0002008673
 C         -0.9148015802        3.4282850366       -0.0086416827
 C         -1.9557276628       -0.4400121099        0.0029913582
 O         -3.1065375796       -0.7434348009        0.0040603451
 N         -0.9529892565       -1.5089978344        0.0037522247
 C         -1.3992252581       -2.8869010165        0.0007300406
 H          3.1182168575        1.6532254586        1.0359491642
 H          3.9541506839        1.0724717558       -0.4189241170
 H          2.5019740358        2.1005208029       -0.5570972121
 H          3.5456002300       -1.4618651705       -0.0181089979
 H         -0.4087026207        4.3931121362        0.0340832972
 H         -1.5133271345        3.3410759955       -0.9163967236
 H         -1.5669301606        3.2910542342        0.8525468373
 H         -1.0798914952       -3.3998284119        0.9088561993
 H         -1.0260600958       -3.4130917539       -0.8787142330
 H         -2.4891307713       -2.8663743009       -0.0312665373
 H          1.4903817405       -2.9493775517       -0.0072537773
