  25
        -42.10620973
 C          3.5462361696        0.0126370074        0.0304276383
 N          2.3228456968        0.6701838615        0.0907494092
 C          1.3306188299       -3.0802390144       -0.4876416741
 N          1.3081984872       -2.0012236688        0.2122258859
 C          0.4551472654       -0.8814278925        0.1217856178
 C          1.0640772329        0.3978542348        0.1037015389
 C          0.1666632693        1.5928546416        0.0584936236
 O          0.5849497477        2.7221724376        0.0890697831
 N         -1.1850323288        1.3114566464       -0.0400746377
 C         -2.1110804938        2.4295322439       -0.1103227397
 C         -1.7592695947        0.0586917264       -0.0648454676
 O         -2.9508427017       -0.1005953797       -0.1485555859
 N         -0.8925483576       -1.0378709616        0.0323364965
 C         -1.5370362018       -2.3345912630        0.1099719286
 H          3.8996060208       -0.2507033899        1.0352771892
 H          3.5506604611       -0.8778307281       -0.6117682225
 H          4.2716245149        0.7287434575       -0.3725930626
 H          0.6125649871       -3.2809815043       -1.2676041932
 H         -1.5381415422        3.3428359560       -0.2637960783
 H         -2.8141459762        2.2718147027       -0.9291773993
 H         -2.6806851037        2.5034396862        0.8184976189
 H         -0.9921720974       -3.0007179095        0.7770600448
 H         -1.6227449414       -2.7867409841       -0.8809986051
 H         -2.5499583973       -2.1834434220        0.4875721285
 H          2.0632194896       -1.8800198712        0.8902028174
