25
 energy: -42.045091548433 gnorm: 0.002239026560 xtb: 6.6.1 (8d0f1dd)
C            3.30231455142430        1.13474051065076        0.01739089625986
N            2.34570170969467        0.05721959619195        0.00093190672136
C            2.66651083557002       -1.23064279988205       -0.00293012854489
N            1.55860548843793       -1.97835017229617        0.00377379147277
C            0.43572422463203       -1.13233853942285        0.01099196846724
C            0.98601692424672        0.18099853676033        0.00781209338790
C            0.24810550264297        1.45213657396701       -0.00905713180156
O            0.82422370955525        2.54353694683936       -0.07814923018167
N           -1.06678883438726        1.29582449141941        0.05384012802387
C           -1.99546938043774        2.33323550964033        0.06553372505313
C           -4.37657159764427        0.19341108805290       -0.27878101452446
O           -4.16952125784066       -0.90731041920187       -0.16921537970941
N           -0.80113079952412       -1.46056124512524        0.01865221338846
C           -1.33408217081760       -2.76570909296922        0.02756327095448
H            3.80535174167756        1.17501346670611        0.98434691633628
H            4.04635803358242        0.98826203246229       -0.76428740263744
H            2.77395560854546        2.07628457628304       -0.14455522711644
H            3.67070479759836       -1.61258402782276       -0.00446564133796
H           -1.52387902001691        3.32088909311378       -0.03814055891342
H           -2.71837357522392        2.18266653493102       -0.74574088164638
H           -2.56416965511123        2.30104853105878        1.00199474888848
H           -1.00898906259138       -3.33788963694338        0.90464453931427
H           -1.06023838497645       -3.32525196853096       -0.87467823765944
H           -2.42040832213126       -2.67916234434075        0.05819670737914
H            1.53648044719572       -2.98722869994126       -0.01450045367385
