25
 energy: 73.239349255140 xtb: 6.6.1 (8d0f1dd)
C            3.62382667238650        0.93797070466977        0.08707334266195
N            2.53614874759457        0.01926733798199        0.06827412344545
C            2.76998987046371       -1.29516535409481       -0.10485159215186
N            1.60331417717866       -1.98374510544219       -0.09335047126120
C            0.54580576319564       -1.08820706675333        0.00371851566114
C            1.12597453507362        0.22969681563985        0.11194047320129
C            0.37525601410482        1.34986472990297        0.11930043072658
O            0.21328584358007        2.49312364561385        0.42765416251773
N           -2.21243639027315        1.24137492781360       -0.24234929603476
C           -2.85425053503001        2.50686330803069       -0.20903423318170
C           -2.77784505943102        0.21029735742379       -0.01382596380633
O           -3.42009204256975       -0.72862188378410        0.18568560840459
N           -0.71112960232306       -1.28633539923205        0.01060982618400
C           -1.17783887121336       -2.64395507259994       -0.02062973779130
H            3.73871287345237        1.44677606264201        1.02524999900872
H            4.53070129304929        0.31933153971760       -0.11184322699282
H            3.63212543366609        1.72695322105071       -0.64835513340421
H            3.71396482030806       -1.74667269857143       -0.25062304642585
H           -2.10708619122052        3.27558801678908       -0.06979054954630
H           -3.38083830516460        2.68470672101601       -1.14282616022706
H           -3.54671259985660        2.59091959031179        0.61454755367603
H           -0.56449189175785       -3.22524649699846        0.66916084655486
H           -1.08116840045060       -3.04107861664147       -1.03665723892841
H           -2.22950589357633       -2.75732960949215        0.26970156385131
H            1.54001165856115       -2.97731635496350       -0.17995145112325
