25
 energy: 0.000000000000 xtb: 6.6.1 (8d0f1dd)
C            3.23720132972391        1.16630909158653        0.08434468864950
N            2.29877796055224        0.07527476373246        0.03981602671198
C            2.58028186251803       -1.21425391179017        0.03006175752192
N            1.43813944744728       -1.93419254010258        0.00098261751768
C            0.39035684826767       -1.05887462812143       -0.00790371763344
C            0.93510047688824        0.21347817468824        0.01709077332874
C            0.09450143016486        1.40504290868848       -0.00410946993748
O            0.49712746915594        2.54126690785742       -0.00342325656480
N           -1.25076628431515        1.06271869620815       -0.03085477937476
C           -2.21907191394203        2.15522079838987       -0.05001256521996
C           -1.81739470187490       -0.20012724136556       -0.04692818139228
O           -2.99983858926755       -0.37846413507442       -0.07008877579474
N           -0.92618577614240       -1.30210203518959       -0.03682761236648
C           -1.46982251276835       -2.64643077634382       -0.06029819901142
H            3.71247229913541        1.21471443890471        1.06488839270555
H            4.00791460421487        1.03430799217987       -0.67357688121503
H            2.69909982127087        2.09770098766290       -0.09130154035862
H            3.56654087521359       -1.63682977417947        0.04233139674524
H           -1.67107945562430        3.09322822573871       -0.02552706696334
H           -2.82428927394145        2.09428605349656       -0.95318074103337
H           -2.87644002486466        2.07745706351925        0.81450059976605
H           -1.17061985538665       -3.19584861009707        0.83242224714061
H           -1.14560246782873       -3.17511580834413       -0.95688266944647
H           -2.55549768731684       -2.55659960601237       -0.07459039105944
H            1.38130842369251       -2.94313824728853       -0.01389874052104
25
 energy: -3.231045577280 xtb: 6.6.1 (8d0f1dd)
C            3.23867909620616        1.18910756249836        0.08580289630624
N            2.33135662113187        0.08060855029833        0.03647207612684
C            2.63118435167948       -1.26665543358825        0.02931103775391
N            1.43487560835997       -1.93662030319260       -0.00126697516210
C            0.40541466230222       -1.04681998549130       -0.00899601568144
C            0.94479038109861        0.22688767319816        0.01430650890803
C            0.09951004792628        1.40275250031482       -0.00376717182524
O            0.48587381236569        2.57203813406234       -0.00189117889402
N           -1.26577947093758        1.05958500627876       -0.02986704570687
C           -2.23768991108498        2.15056453162187       -0.04850415610083
C           -1.82415771247780       -0.19307538901599       -0.04683753048904
O           -3.02031652008597       -0.37994405346645       -0.07003119479584
N           -0.92853404943272       -1.28913523153128       -0.03696372745505
C           -1.46632214051591       -2.63157878765444       -0.05983205098447
H            3.69751779885650        1.26045316268628        1.07466612959474
H            4.01618749366346        1.06375894274360       -0.66617375989170
H            2.68106222325654        2.10821471913265       -0.10656310197896
H            3.61682878293770       -1.81693850349849        0.04130279560234
H           -1.69064831805508        3.09032673592645       -0.02405421608167
H           -2.84629374678862        2.09400476991696       -0.95126836821733
H           -2.89825927716776        2.07677011132137        0.81549722706611
H           -1.16224547539190       -3.18099974471945        0.83295565077338
H           -1.13554535028356       -3.16147868419869       -0.95503081111866
H           -2.55236868016257       -2.54627095150403       -0.07531628864489
H            1.35709407757242       -2.93652654339501       -0.01691681690892
25
 energy: 7.309286324209 xtb: 6.6.1 (8d0f1dd)
C            3.23654788451189        1.21467611250448        0.08661610824499
N            2.37230069372816        0.07277941303185        0.02954317156906
C            2.68816820137804       -1.32825866913150        0.02727938722602
N            1.42990205801280       -1.93053873161706       -0.00447332714910
C            0.42268692674257       -1.03094022226306       -0.01066776316299
C            0.96252143755981        0.24088895068685        0.01101894224660
C            0.11042634024762        1.39736217799580       -0.00244787527828
O            0.45931630240520        2.58972504728365        0.00058819893153
N           -1.27978840360118        1.06071130442381       -0.02787084287565
C           -2.25873913370418        2.14824243333034       -0.04581172131324
C           -1.82319132962336       -0.18286898178386       -0.04598217529386
O           -3.02398296294506       -0.38167698129070       -0.06950687659239
N           -0.92685961380693       -1.26912700165634       -0.03691239270637
C           -1.45768196569373       -2.61056250447539       -0.05907444621937
H            3.66914207843121        1.33412333111455        1.08662383258022
H            4.03417193104357        1.11271497566152       -0.64805742887737
H            2.65101550094337        2.11568235386576       -0.13361146934356
H            3.65096938518980       -2.06572046425576        0.03800612091447
H           -1.72113165011815        3.09391729676064       -0.02140242707803
H           -2.87315013803697        2.09126347701295       -0.94661003910098
H           -2.92445829251583        2.07327580968152        0.81614884615870
H           -1.15086251819604       -3.15924778905073        0.83449468988807
H           -1.12104461944361       -3.14172536754742       -0.95262359055702
H           -2.54434289115037       -2.53093842303494       -0.07661303849431
H            1.33027908361380       -2.92472875850290       -0.02161997152259
25
 energy: 19.276551037128 xtb: 6.6.1 (8d0f1dd)
C            3.22769341977983        1.22962023422475        0.08595896707763
N            2.39578737399385        0.05726947049497        0.02251048015547
C            2.71801645857459       -1.37191326480492        0.02432835950858
N            1.43118123299102       -1.93203474226188       -0.00736599660261
C            0.43381604519903       -1.02602331241040       -0.01214932189571
C            0.97729895592846        0.24464060118108        0.00894910972716
C            0.12208491017022        1.39958354607881       -0.00081569434226
O            0.44638770187048        2.59558039892438        0.00270076720501
N           -1.28187314002075        1.06932907011715       -0.02573659074729
C           -2.27035734780229        2.15031123779410       -0.04276231215530
C           -1.81783484126025       -0.17515764589288       -0.04491518597260
O           -3.01775015499725       -0.38118443351913       -0.06861996135307
N           -0.91984196043550       -1.25593946682670       -0.03672076789933
C           -1.44957826479776       -2.59588274191876       -0.05814980242399
H            3.62964523726599        1.39540733180453        1.09590131954916
H            4.05134296747456        1.15334198148411       -0.62453235492998
H            2.61995299941229        2.11190452271180       -0.16444867531596
H            3.66415894852186       -2.23102015905410        0.03314808033174
H           -1.74772783112916        3.10370123881541       -0.01833235968853
H           -2.88862065389128        2.08696142848995       -0.94157887324893
H           -2.93888961896680        2.06798016894821        0.81750363211717
H           -1.14343933453207       -3.14087394372579        0.83753336969032
H           -1.11010118348492       -3.12559415187907       -0.95105452824858
H           -2.53642131536795       -2.51582468791329       -0.07787590070296
H            1.31728370047630       -2.92515389211826       -0.02644184764051
25
 energy: 23.655982545609 xtb: 6.6.1 (8d0f1dd)
C            3.22038240712519        1.23419686159215        0.08521545303147
N            2.40004560585438        0.05158357830828        0.01863670283624
C            2.72364741443328       -1.38360346340662        0.02205299978861
N            1.43522375436384       -1.93356080121243       -0.00856876509386
C            0.43664820737842       -1.02655707194074       -0.01239871338007
C            0.98194079393001        0.24407354922377        0.00912896702563
C            0.12695730387950        1.40390987025433        0.00009340122270
O            0.44420507409913        2.59614859702383        0.00332914104850
N           -1.27923221059952        1.07475024359211       -0.02458488355700
C           -2.27192285861790        2.15225689788819       -0.04125343584616
C           -1.81510157990762       -0.17269113616689       -0.04409577917366
O           -3.01336141815393       -0.37968865798738       -0.06804495061781
N           -0.91543478075849       -1.25220092773880       -0.03627679720453
C           -1.44700678722104       -2.59195807225836       -0.05752693156098
H            3.60263772521702        1.41453160504701        1.09872418637626
H            4.05654998870892        1.16533138289162       -0.60980465057055
H            2.60884549171512        2.10768711957179       -0.18153505231652
H            3.67155196655030       -2.28141495966712        0.02980262662664
H           -1.75688435018232        3.10914852751100       -0.01682973360473
H           -2.89070764961245        2.08490376112314       -0.93962903984823
H           -2.94037652249949        2.06550043948016        0.81889476316650
H           -1.14257120435172       -3.13498020941976        0.83930162266615
H           -1.10704895048700       -3.12086469244437       -0.95004030447753
H           -2.53387205399732       -2.51067513664138       -0.07857224365924
H            1.31709893810619       -2.92679851587947       -0.02898467068331
25
 energy: 25.490367173359 xtb: 6.6.1 (8d0f1dd)
C            3.21716476706840        1.23572046713429        0.08494336859495
N            2.39959561803501        0.05093035004001        0.01596879882685
C            2.72272668473875       -1.38403028774269        0.02020162782443
N            1.43814703211801       -1.93303009046651       -0.00909527296597
C            0.43637946201038       -1.02713343970135       -0.01219819133120
C            0.98311584205530        0.24341146335356        0.01002618920022
C            0.12839050784699        1.40708144904919        0.00039689991571
O            0.44266276586187        2.59675890861792        0.00346043795569
N           -1.27700901929603        1.07647202775322       -0.02390783895748
C           -2.27119475765867        2.15268793396494       -0.04039205008010
C           -1.81470345571747       -0.17251095183633       -0.04350011053968
O           -3.01183829409990       -0.37858435350490       -0.06758230621306
N           -0.91375488123069       -1.25138262166502       -0.03576447729997
C           -1.44694795919319       -2.59156790285785       -0.05722761090881
H            3.58673037355093        1.42030619638195        1.09990884953405
H            4.05939647753818        1.16662423021673       -0.60040231847625
H            2.60784548688095        2.10529277853285       -0.19203619977040
H            3.67943585033093       -2.29734500399392        0.02796217851835
H           -1.75897036030686        3.11066389876601       -0.01599795575826
H           -2.88987610223706        2.08420305413235       -0.93872929767033
H           -2.93920097579077        2.06463789273463        0.81996405566181
H           -1.14353202568444       -3.13388826205735        0.83997146501907
H           -1.10680628895974       -3.12003639879310       -0.94950884607675
H           -2.53381146051953       -2.50986027842960       -0.07898745023267
H            1.31826901763112       -2.92639227088501       -0.03044003257564
25
 energy: 26.931030419441 xtb: 6.6.1 (8d0f1dd)
C            3.21631830673700        1.23645337405083        0.08498249102564
N            2.39827845008367        0.05208142566101        0.01337935275082
C            2.72012081785696       -1.38071415224865        0.01822480564159
N            1.43975824414881       -1.93162393144803       -0.00940033064340
C            0.43499350964542       -1.02718799764640       -0.01178927976053
C            0.98311147396772        0.24305503441751        0.01118401204580
C            0.12840775193895        1.40896660884466        0.00047359657434
O            0.44112385204890        2.59776236459698        0.00339961204737
N           -1.27573704013216        1.07625401351532       -0.02336633462081
C           -2.27028414085183        2.15239200004171       -0.03977308165128
C           -1.81559291224935       -0.17305615213132       -0.04300567286519
O           -3.01217699391686       -0.37772779670968       -0.06717792631812
N           -0.91379430441338       -1.25146063701610       -0.03513775190768
C           -1.44785002250007       -2.59221503394038       -0.05710419025701
H            3.57654444211430        1.42324950287482        1.10121001183289
H            4.06263409285736        1.16433069947441       -0.59343055490197
H            2.61000737027233        2.10418144316307       -0.19996361083293
H            3.69055160216742       -2.30484963205534        0.02703587304011
H           -1.75870619260672        3.11057497512489       -0.01538544430857
H           -2.88890821335808        2.08415993034243       -0.93811889810063
H           -2.93803239688511        2.06449516750242        0.82074797863174
H           -1.14478233211151       -3.13446865717304        0.84007153298250
H           -1.10749857618116       -3.12027321542408       -0.94937448883563
H           -2.53465026113415       -2.51038498915433       -0.07918051731533
H            1.31837777747407       -2.92496555591869       -0.03146727205913
25
 energy: 28.604340072842 xtb: 6.6.1 (8d0f1dd)
C            3.21665840568834        1.23704157643472        0.08517782256328
N            2.39708258120638        0.05389623743078        0.01109476272944
C            2.71750947565496       -1.37644499301449        0.01610143018037
N            1.44001685789417       -1.93018740927987       -0.00947937290018
C            0.43351021692386       -1.02659756152346       -0.01112880791812
C            0.98231977974084        0.24339954021942        0.01250874896640
C            0.12746766571759        1.40962318750708        0.00058379129018
O            0.43991073035637        2.59882316360889        0.00321837475943
N           -1.27591806043694        1.07535305013962       -0.02298135057113
C           -2.27021133151848        2.15209257260639       -0.03957636311699
C           -1.81702267070361       -0.17351228597022       -0.04268445108212
O           -3.01358131878699       -0.37728869240778       -0.06706754951574
N           -0.91488228395667       -1.25173765323100       -0.03437893205554
C           -1.44879823231011       -2.59293016474992       -0.05703528713186
H            3.57220834943234        1.42435475822911        1.10207231131842
H            4.06487669195289        1.16152294202930       -0.58979060490391
H            2.61289176508620        2.10482524277423       -0.20369515420716
H            3.70482632176810       -2.31194449563135        0.02706507715922
H           -1.75798776242536        3.11003412496078       -0.01517030803963
H           -2.88877311620473        2.08452953223556       -0.93799138039124
H           -2.93797479596231        2.06488286533866        0.82097341628138
H           -1.14556326960130       -3.13553746061227        0.83988172175614
H           -1.10823848567764       -3.12062020645576       -0.94948582252618
H           -2.53552486967728       -2.51121715817644       -0.07912564310911
H            1.31741166081192       -2.92333192371798       -0.03205251734073
25
 energy: 31.402680595335 xtb: 6.6.1 (8d0f1dd)
C            3.21719621389847        1.23801686553785        0.08546147367882
N            2.39598330298019        0.05625413116542        0.00901156383322
C            2.71507487348772       -1.37183536880331        0.01323839701838
N            1.43940108852813       -1.92878659504039       -0.00943071688266
C            0.43224308058830       -1.02530928108367       -0.01012998520677
C            0.98065757182603        0.24478433097324        0.01407631231313
C            0.12558750946883        1.40978760827923        0.00080492843107
O            0.43870949442084        2.60002115306226        0.00300393403914
N           -1.27768736362983        1.07470120025051       -0.02275200257958
C           -2.27143467113633        2.15227703251030       -0.03981636282030
C           -1.81867333009367       -0.17347343252081       -0.04256874013005
O           -3.01549835250501       -0.37728812591777       -0.06737285029165
N           -0.91651377965415       -1.25183943974207       -0.03338936626562
C           -1.44947032759705       -2.59327673088358       -0.05690246267349
H            3.57239410679788        1.42409266896373        1.10244075586563
H            4.06522166013619        1.15979333121968       -0.58937227937856
H            2.61508862289419        2.10728444629836       -0.20332353923217
H            3.72549749968480       -2.32626903605734        0.02846612869638
H           -1.75785624064051        3.10970314267254       -0.01539145489464
H           -2.88980858113781        2.08530773020553       -0.93838882946765
H           -2.93937363907839        2.06582185348640        0.82065441542486
H           -1.14577051741303       -3.13650591626613        0.83960736281448
H           -1.10873002948615       -3.12061415114514       -0.94966572673033
H           -2.53617597493946       -2.51202155740116       -0.07883663776404
H            1.31615208757231       -2.92159707101965       -0.03239040560306
25
 energy: 39.297678659065 xtb: 6.6.1 (8d0f1dd)
C            3.21694330658498        1.24129291359907        0.08596291012223
N            2.39397596082762        0.06135572606335        0.00561377802465
C            2.71120857738464       -1.36385216916662        0.00542575624834
N            1.43820771087378       -1.92575496501866       -0.00962984254720
C            0.43042979468242       -1.02212044893575       -0.00797113494389
C            0.97658895584923        0.24892852630191        0.01714976151538
C            0.12119507285765        1.41100229558900        0.00166843045387
O            0.43537090328838        2.60288715982550        0.00291080331598
N           -1.28258651446197        1.07506481240518       -0.02250173893404
C           -2.27550217795421        2.15363835473644       -0.04074425600364
C           -1.82157326544387       -0.17244751218109       -0.04255882336926
O           -3.01876022954005       -0.37773172285455       -0.06847710167307
N           -0.91931906047083       -1.25123714574228       -0.03128554409757
C           -1.45008653333122       -2.59294645222360       -0.05640636458102
H            3.57547776019840        1.42328908561036        1.10259021564919
H            4.06268507457024        1.16051471369251       -0.59177075270861
H            2.61628064947953        2.11380932020487       -0.19884228525071
H            3.77455871496744       -2.37394396346247        0.03387378154961
H           -1.75973384010197        3.11016737416589       -0.01633462806861
H           -2.89329064170076        2.08707009849314       -0.93969552586664
H           -2.94374057702750        2.06808589799611        0.81953146197679
H           -1.14556301948869       -3.13723092603993        0.83940443111539
H           -1.10899123810570       -3.11966756668982       -0.94971120374579
H           -2.53689751382308       -2.51312293183143       -0.07812536079051
H            1.31533643485800       -2.91802168579309       -0.03304285519634
25
 energy: 55.962181461717 xtb: 6.6.1 (8d0f1dd)
C            3.21336061899490        1.25585147822145        0.08789407939124
N            2.38482116867270        0.08267544012311       -0.00877505926389
C            2.69640672910420       -1.33260606899025       -0.04293812765328
N            1.43484161399286       -1.91262739242127       -0.01457495558451
C            0.42356464075711       -1.00965548728896        0.00010570762483
C            0.95975272020145        0.26597260456899        0.02931179919424
C            0.10362960599211        1.41818901427416        0.00879409017942
O            0.42078893955312        2.61471372920692        0.00463110102752
N           -1.30158004469345        1.07861057495821       -0.02130876488616
C           -2.29180612850487        2.15969045027185       -0.04517972640771
C           -1.83227977260723       -0.16789433215269       -0.04223862058074
O           -3.03017553156152       -0.37935271596230       -0.07303276003161
N           -0.92918632813141       -1.24810625460387       -0.02227515422538
C           -1.45207132309591       -2.59091986991683       -0.05351707859340
H            3.58764356456789        1.41925279646725        1.10259416258495
H            4.04881021599408        1.16861296766601       -0.60327602943281
H            2.61708103734435        2.14022592543242       -0.17868043600484
H            3.97221715265753       -2.58292820624656        0.07089568358557
H           -1.76907899067136        3.11327978285579       -0.02095397777872
H           -2.90683970734897        2.09351570137951       -0.94577289461346
H           -2.96108874977435        2.07706330421805        0.81431577592598
H           -1.14486846757658       -3.13855606417602        0.83999267812981
H           -1.10940022659981       -3.11535107077088       -0.94856756737624
H           -2.53939869418288       -2.51699409472882       -0.07488598254488
H            1.31707026188854       -2.90363342364127       -0.03552403047140
25
 energy: 52.990222955926 xtb: 6.6.1 (8d0f1dd)
C            3.20080415580194        1.27215463289385        0.08890336599160
N            2.34142722599071        0.12424728186372       -0.01773161054066
C            2.62755474963703       -1.23576313520833       -0.11583207784410
N            1.42926041360731       -1.87952372607933       -0.01691825555407
C            0.40264172910042       -0.98714140058713        0.01161467140537
C            0.92455756534488        0.29095337644674        0.04894843027256
C            0.07394340228913        1.43446850647933        0.01496393293740
O            0.40961633400897        2.62363051375748        0.00501357797169
N           -1.31863057318213        1.08473926435833       -0.02262642379138
C           -2.30541405615562        2.16567583059297       -0.04767772570396
C           -1.84397195833561       -0.16466459913808       -0.04456119551559
O           -3.04100065150667       -0.37884872567442       -0.07612202093478
N           -0.94390975560052       -1.24601089859239       -0.01555520958746
C           -1.45379837851455       -2.59165450297093       -0.05242728276779
H            3.58656959509623        1.41561439858606        1.10261898443962
H            4.03318516939271        1.16090063978115       -0.60674821922705
H            2.61891672191861        2.16903678950916       -0.17330455961437
H            4.29123946039326       -2.90936489127967        0.12265513770322
H           -1.77511537346131        3.11588868910896       -0.02288613011008
H           -2.91616609757955        2.09657019082038       -0.94917793071022
H           -2.97042924238971        2.07992418406343        0.81331024378022
H           -1.14302093578625       -3.13960835089973        0.84006264364663
H           -1.10812878027082       -3.11433047387270       -0.94814799057094
H           -2.54106739960703       -2.52288719939947       -0.07374730963315
H            1.33315098478113       -2.87497760581535       -0.03759313384810
25
 energy: 53.955426087925 xtb: 6.6.1 (8d0f1dd)
C            3.17709952057013        1.27843377269404        0.07698428337641
N            2.28002573812581        0.15021809656613        0.00787199271481
C            2.55970935226563       -1.12505397190219       -0.08262027286540
N            1.43349480757502       -1.82800810674968       -0.01921307362725
C            0.37526337800438       -0.96561594491128        0.01420745420521
C            0.89705976347533        0.30242522265089        0.04973914108266
C            0.04575942862554        1.45943047695245        0.00434431597207
O            0.39048232473624        2.61637823268720        0.00522712375227
N           -1.31557078864004        1.09856609181258       -0.02468244644396
C           -2.30800458816473        2.16852375528439       -0.04398171550100
C           -1.84902478154484       -0.16846674897144       -0.04321830959892
O           -3.04019386426472       -0.37366692026389       -0.07305068022055
N           -0.94968519564732       -1.23863570438166       -0.02202802934830
C           -1.45397692566016       -2.59152594691614       -0.05581574376226
H            3.55958927627037        1.41172507133469        1.08851126491914
H            4.02042793386791        1.14780124883457       -0.59939186232860
H            2.62368740449391        2.17812788231407       -0.19369951119084
H            4.55109681036668       -3.20937934791135        0.12409805347416
H           -1.78354053227184        3.12000397592486       -0.01939017480202
H           -2.91667708036273        2.09400969882100       -0.94467328150236
H           -2.96795226021071        2.07576206319442        0.81862581955478
H           -1.14128427048069       -3.13482487923340        0.83714000575378
H           -1.10549977553363       -3.11262453487052       -0.94931331205406
H           -2.54117248558338       -2.52741994056532       -0.07730686682837
H            1.37110111496028       -2.83715475365042       -0.05133026253685
25
 energy: 54.866436516417 xtb: 6.6.1 (8d0f1dd)
C            3.16859386676753        1.31287806950962        0.07883111432430
N            2.29487425939365        0.17464152514142       -0.00857573891915
C            2.62781801881620       -1.14608037797236       -0.08494120462463
N            1.43297758060483       -1.81211894685214       -0.02471323249866
C            0.37126831236625       -0.95077469959197        0.01924163714410
C            0.88135732713748        0.32939542036400        0.05793489081742
C            0.02401910718386        1.47047675760768        0.01474666886977
O            0.34286797193870        2.65313671337524        0.00523501642019
N           -1.35141838302372        1.10327915996716       -0.02067634424391
C           -2.33719705704253        2.17923559709607       -0.04905721298733
C           -1.87167324905544       -0.16095053719264       -0.04067968621846
O           -3.06598582673971       -0.37217867454397       -0.07992472058690
N           -0.96802164275943       -1.22732461915982       -0.01338920993731
C           -1.46076659039258       -2.58533671310860       -0.05332041950683
H            3.56227170356153        1.42301361037696        1.08979884816886
H            3.99450691831621        1.15882467332756       -0.60904049201998
H            2.62701259559911        2.22809859061873       -0.17728366492395
H            4.81459703296063       -3.53466747959834        0.12828687202446
H           -1.80208941470511        3.12654975600484       -0.02427659723764
H           -2.94304065464723        2.10908257850504       -0.95331555586441
H           -2.99895324143993        2.09303387318069        0.81351452961379
H           -1.14269044173131       -3.13329473941864        0.83623155552902
H           -1.10660858048836       -3.10378536517202       -0.94799538703831
H           -2.54935792828408       -2.53685767851340       -0.07583020212838
H            1.36785262063594       -2.80924770520712       -0.05376755198150
25
 energy: 53.423511334433 xtb: 6.6.1 (8d0f1dd)
C            3.15431694760164        1.31569689895544        0.07801636911260
N            2.25019616708629        0.19758502138955        0.02137469903328
C            2.59750184828867       -1.08928938087436       -0.04499428908646
N            1.42842708144058       -1.78719758155426       -0.01767553370545
C            0.35634778302882       -0.94437573276161        0.00601054006674
C            0.86339623597653        0.33497898926239        0.04279326957182
C            0.01289521471043        1.48461454221638        0.00758448902291
O            0.34441034269670        2.65005803775712        0.00313009321073
N           -1.34301116835235        1.10947047469903       -0.02567448952363
C           -2.33127082266395        2.17704365749977       -0.04478124552778
C           -1.86955074867649       -0.16559825079833       -0.04653529125709
O           -3.06177600526846       -0.36746794280830       -0.07387159821722
N           -0.96928805154777       -1.22639737286472       -0.03013670786097
C           -1.46032750399847       -2.58746653043953       -0.05746326048769
H            3.55721650512647        1.42415108179463        1.08699296858776
H            3.98226179188459        1.14752098733271       -0.60758775626419
H            2.62224960229201        2.22718257888929       -0.18760368282010
H            4.90380624096155       -3.65792109047319        0.09636003584600
H           -1.80107557517181        3.12606886360933       -0.01916012389109
H           -2.93636015597972        2.10365637533491       -0.94781236849362
H           -2.98677730352259        2.08336042456167        0.82056215682918
H           -1.14013245783123       -3.12658100356413        0.83592126006628
H           -1.10565541560547       -3.10856501585534       -0.94892737706399
H           -2.54794062499488       -2.53752259384431       -0.07899837541423
H            1.39235437749144       -2.79397664872010       -0.04048986953921
25
 energy: 53.282693326441 xtb: 6.6.1 (8d0f1dd)
C            3.15448045732667        1.31737243707149        0.07953415512239
N            2.24290055602325        0.20442304884402        0.02885245939022
C            2.59967975608577       -1.08450366171865       -0.02240993317519
N            1.42837085792391       -1.78558873565811       -0.01766036804592
C            0.35770794905506       -0.94621408121741       -0.00093843608190
C            0.86251227243454        0.33533184225899        0.03342181081668
C            0.01075757551528        1.48625077324009        0.00725367044325
O            0.34502906726307        2.65154185872576        0.00393648317986
N           -1.34283692039472        1.11015789407879       -0.02580404582159
C           -2.33324625134376        2.17633399647613       -0.04534259084844
C           -1.86917779610687       -0.16737488114024       -0.04444915624882
O           -3.06190814462276       -0.36691723651970       -0.07064487421482
N           -0.96777090095626       -1.22681016535362       -0.03435368280480
C           -1.46068736358054       -2.58753300973772       -0.05809943374455
H            3.56425120165388        1.42313615343120        1.08615593445350
H            3.97863118538255        1.14653786347769       -0.61034915882913
H            2.62625439610135        2.23068960508537       -0.18313467884576
H            4.90376702847725       -3.67884254166239        0.07941340933156
H           -1.80426075457010        3.12615246367909       -0.02075076185243
H           -2.93890785385004        2.10377100043788       -0.94803954742139
H           -2.98970182749132        2.08536630205360        0.81947387396923
H           -1.14015456494557       -3.12538822594854        0.83571245112434
H           -1.10645325845708       -3.10879238943956       -0.94920084246376
H           -2.54823645037317       -2.53685616682636       -0.07854298636883
H            1.40121408842210       -2.79321535489378       -0.03699983886916
25
 energy: 53.210701380982 xtb: 6.6.1 (8d0f1dd)
C            3.15525973306539        1.31919884458190        0.08148449163912
N            2.23941495657497        0.20939241340423        0.03299379619824
C            2.60513678851394       -1.08317062942912        0.00534375895382
N            1.42970285411495       -1.78638299916950       -0.01372252054265
C            0.36128342664395       -0.94909935388488       -0.00878983922942
C            0.86423130750025        0.33425398713358        0.01969874517344
C            0.00914343942948        1.48539088167912        0.00354445697316
O            0.34718478143272        2.65109525186641        0.00537060218036
N           -1.34305030537273        1.11032997815316       -0.02738427845415
C           -2.33390325405770        2.17650344977805       -0.04428459822030
C           -1.86908605048257       -0.16869132985968       -0.04560138445132
O           -3.06247738232654       -0.36611088525943       -0.06914101456895
N           -0.96628502571615       -1.22695691228126       -0.03858997366684
C           -1.46090938818799       -2.58752802326903       -0.05858209942284
H            3.56764926973752        1.42385479019296        1.08749066714563
H            3.97695854368186        1.14752921337726       -0.61190086557708
H            2.62673108978764        2.23335841054220       -0.17997922563178
H            4.88548174173645       -3.68651286672440        0.05461860968914
H           -1.80402956476187        3.12617325804309       -0.01933463625028
H           -2.93991219744265        2.10548746631972       -0.94704273376259
H           -2.99045780061938        2.08602139142410        0.82062146811086
H           -1.14070520370194       -3.12442919018787        0.83591181331465
H           -1.10619435996287       -3.10974612639032       -0.94873077332118
H           -2.54852709224639       -2.53702856374723       -0.07924124716575
H            1.40957399763214       -2.79390366754901       -0.02771930691870
25
 energy: 53.183210804398 xtb: 6.6.1 (8d0f1dd)
C            3.15656951698940        1.31902614426464        0.08229196729046
N            2.24113956512853        0.20892756695083        0.03263046096729
C            2.60630386352155       -1.08277444115262        0.01098929630080
N            1.43073256133905       -1.78710660181428       -0.01181124138630
C            0.36249933433104       -0.94909969027574       -0.00881196547395
C            0.86524357040673        0.33417610814752        0.01836747494431
C            0.00838235811710        1.48443398048781        0.00331264962624
O            0.34747679629165        2.65043604437484        0.00602054188051
N           -1.34374991107523        1.11026530257827       -0.02669873917409
C           -2.33468061966932        2.17671024093762       -0.04517496960530
C           -1.86913271716445       -0.16852705980972       -0.04445090920044
O           -3.06249947940251       -0.36651527779199       -0.06914380263363
N           -0.96625608641414       -1.22659478949718       -0.03725945188608
C           -1.46066196606948       -2.58717907125751       -0.05851593882661
H            3.57016364066853        1.42232876032118        1.08747212298330
H            3.97677673433809        1.14868365269617       -0.61291042939470
H            2.62745423499753        2.23407443139331       -0.17667555824943
H            4.87851892970661       -3.68500661668818        0.04670335460857
H           -1.80467483672479        3.12637125834315       -0.02064650579532
H           -2.94026056486226        2.10483435447501       -0.94823071429603
H           -2.99182415719783        2.08667144936858        0.81925358507147
H           -1.14033668811517       -3.12496951484077        0.83551789536651
H           -1.10626380146319       -3.10906258046550       -0.94911861036623
H           -2.54829444679737       -2.53684160410699       -0.07880308004868
H            1.40958847409242       -2.79423325789443       -0.02727352050812
25
 energy: 53.159743722895 xtb: 6.6.1 (8d0f1dd)
C            3.15668946844738        1.31923887155940        0.08266236922844
N            2.24324801122099        0.20773396291920        0.03128383539519
C            2.60728095072751       -1.08235092983043        0.01535471197836
N            1.43184516570858       -1.78787464828233       -0.00939310019368
C            0.36325558428137       -0.94877677787594       -0.00935950041817
C            0.86558968515224        0.33432869419152        0.01731240736737
C            0.00802898875163        1.48351384576255        0.00155362672094
O            0.34763563968033        2.65000562607733        0.00547753733288
N           -1.34411777852769        1.10999751371908       -0.02687039748679
C           -2.33451996844590        2.17705259377792       -0.04456805054197
C           -1.86888065353539       -0.16816080367621       -0.04555942794801
O           -3.06227864805237       -0.36695900393653       -0.06999382042882
N           -0.96644479888198       -1.22643110494998       -0.03682201180604
C           -1.46037786350075       -2.58701649950967       -0.05860839220589
H            3.56867078760242        1.42349127528405        1.08829751247443
H            3.97760618990264        1.14912798329150       -0.61208260897349
H            2.62637919020262        2.23412443894878       -0.17750871926328
H            4.87433007772781       -3.68435575334128        0.04223261960461
H           -1.80388973547671        3.12633810960038       -0.01966804814117
H           -2.94020572210326        2.10535693408845       -0.94755400777651
H           -2.99124566726969        2.08624383529964        0.82005131303156
H           -1.14011583184902       -3.12497789614138        0.83549876239009
H           -1.10609903455635       -3.10927305989364       -0.94919293171868
H           -2.54802990159359       -2.53685212434269       -0.07897665970726
H            1.40786016935969       -2.79449629399568       -0.02653310671954
25
 energy: 53.160131342281 xtb: 6.6.1 (8d0f1dd)
C            3.15665037187444        1.31912770880928        0.08277690798607
N            2.24358900733271        0.20731682906079        0.03106233323006
C            2.60704134305581       -1.08140765333817        0.01517936083910
N            1.43203118225787       -1.78778399122585       -0.00909981039374
C            0.36307176045853       -0.94835488239140       -0.00924391969053
C            0.86494411354710        0.33474483756024        0.01835200148068
C            0.00797195251952        1.48355056563037        0.00209051957922
O            0.34747526050702        2.65015946870000        0.00533743235982
N           -1.34419548376182        1.10990168744367       -0.02624124007076
C           -2.33460869963016        2.17698307208411       -0.04501545950510
C           -1.86865687042731       -0.16795260192300       -0.04493869090178
O           -3.06211600138929       -0.36716895166035       -0.06993445664487
N           -0.96647768733592       -1.22660203343618       -0.03613903565211
C           -1.46028999426074       -2.58704062866673       -0.05853494176807
H            3.56928022161763        1.42291783982765        1.08801177297325
H            3.97737270311701        1.14944871111913       -0.61222450335167
H            2.62653792269424        2.23397095600332       -0.17663651208994
H            4.87608931291897       -3.68477628313176        0.04146477435708
H           -1.80396193122983        3.12623783505122       -0.02032107694740
H           -2.93993820309187        2.10485636570507       -0.94818911190840
H           -2.99162447065643        2.08645993707391        0.81938099693277
H           -1.14000828121346       -3.12530612933324        0.83538861170316
H           -1.10613930376938       -3.10905165446036       -0.94932495988090
H           -2.54797728745629       -2.53683999874002       -0.07879067055669
H            1.40615336729418       -2.79436221701770       -0.02737640988469
