25
 energy: 0.000000000000 xtb: 6.6.1 (8d0f1dd)
C            3.23720163006194        1.16630919979326        0.08434469647475
N            2.29877817382611        0.07527477071623        0.03981603040599
C            2.58028210190900       -1.21425402444508        0.03006176031096
N            1.43813958087363       -1.93419271955128        0.00098261760884
C            0.39035688448383       -1.05887472636071       -0.00790371836672
C            0.93510056364412        0.21347819449412        0.01709077491437
C            0.09450143893243        1.40504303904423       -0.00410947031874
O            0.49712751527797        2.54126714362870       -0.00342325688240
N           -1.25076640035757        1.06271879480407       -0.03085478223738
C           -2.21907211982101        2.15522099834493       -0.05001256985998
C           -1.81739487048744       -0.20012725993278       -0.04692818574614
O           -2.99983886758376       -0.37846417018721       -0.07008878229737
N           -0.92618586207120       -1.30210215599479       -0.03682761578324
C           -1.46982264913417       -2.64643102187190       -0.06029820460571
H            3.71247264356769        1.21471455160235        1.06488849150277
H            4.00791497605742        1.03430808813993       -0.67357694370751
H            2.69910007168542        2.09770118228144       -0.09130154882931
H            3.56654120610678       -1.63682992603973        0.04233140067262
H           -1.67107961066214        3.09322851271934       -0.02552706933167
H           -2.82428953597071        2.09428624779827       -0.95318082946668
H           -2.87644029173232        2.07745725625962        0.81450067533302
H           -1.17061996399332       -3.19584890659852        0.83242232437030
H           -1.14560257411436       -3.17511610292205       -0.95688275822323
H           -2.55549792440841       -2.55659984320617       -0.07459039797972
H            1.38130855184625       -2.94313852034425       -0.01389874181052
25
 energy: -3.231012772516 xtb: 6.6.1 (8d0f1dd)
C            3.23867939668130        1.18910767282027        0.08580290426678
N            2.33135683742829        0.08060855777695        0.03647207951061
C            2.63118459579304       -1.26665555110482        0.02931104047330
N            1.43487574148352       -1.93662048286654       -0.00126697527965
C            0.40541469991540       -1.04682008261218       -0.00899601651606
C            0.94479046875349        0.22688769424813        0.01430651023535
C            0.09951005715853        1.40275263045808       -0.00376717217475
O            0.48587385744364        2.57203837268848       -0.00189117906948
N           -1.26577958837288        1.05958510458395       -0.02986704847785
C           -2.23769011869128        2.15056473114493       -0.04850416060090
C           -1.82415788171780       -0.19307540692896       -0.04683753483449
O           -3.02031680030207       -0.37994408871654       -0.07003120129313
N           -0.92853413557938       -1.28913535113346       -0.03696373088444
C           -1.46632227655697       -2.63157903180459       -0.05983205653551
H            3.69751814190134        1.26045327962742        1.07466622929911
H            4.01618786627354        1.06375904143603       -0.66617382169734
H            2.68106247199762        2.10821491472662       -0.10656311186557
H            3.61682911849645       -1.81693867206871        0.04130279943429
H           -1.69064847490847        3.09032702263789       -0.02405421831335
H           -2.84629401085939        2.09400496419257       -0.95126845647322
H           -2.89825954605974        2.07677030399800        0.81549730272555
H           -1.16224558322162       -3.18100003984326        0.83295572805256
H           -1.13554545563612       -3.16147897751140       -0.95503089972361
H           -2.55236891696384       -2.54627118773957       -0.07531629563251
H            1.35709420347962       -2.93652681583732       -0.01691681847841
25
 energy: 7.309340990355 xtb: 6.6.1 (8d0f1dd)
C            3.23654818478930        1.21467622519856        0.08661611628098
N            2.37230091382325        0.07277941978411        0.02954317430999
C            2.68816845077839       -1.32825879236344        0.02727938975692
N            1.42990219067491       -1.93053891072677       -0.00447332756412
C            0.42268696595822       -1.03094031791067       -0.01066776415271
C            0.96252152685972        0.24088897303582        0.01101894326891
C            0.11042635049265        1.39736230763896       -0.00244787550539
O            0.45931634501922        2.58972528755073        0.00058819898610
N           -1.27978852233619        1.06071140283349       -0.02787084546142
C           -2.25873934326336        2.14824263263796       -0.04581172556352
C           -1.82319149877370       -0.18286899874991       -0.04598217955995
O           -3.02398324350132       -0.38167701670157       -0.06950688304103
N           -0.92685969979824       -1.26912711940222       -0.03691239613099
C           -1.45768210093318       -2.61056274667571       -0.05907445170012
H            3.66914241884344        1.33412345489059        1.08662393339399
H            4.03417230532219        1.11271507889595       -0.64805748900224
H            2.65101574689680        2.11568255015256       -0.13361148173964
H            3.65096972391602       -2.06572065590724        0.03800612444057
H           -1.72113180979969        3.09391758380520       -0.02140242906368
H           -2.87315040459940        2.09126367103423       -0.94661012692468
H           -2.92445856383848        2.07327600203396        0.81614892187859
H           -1.15086262496968       -3.15924808215646        0.83449476731004
H           -1.12104472345084       -3.14172565902747       -0.95262367893864
H           -2.54434312720703       -2.53093865784797       -0.07661304560224
H            1.33027920703319       -2.92472902985064       -0.02161997352843
25
 energy: 19.276614655231 xtb: 6.6.1 (8d0f1dd)
C            3.22769371923575        1.22962034830530        0.08595897505265
N            2.39578759626797        0.05726947580826        0.02251048224393
C            2.71801671074418       -1.37191339208700        0.02432836176569
N            1.43118136577181       -1.93203492151039       -0.00736599728601
C            0.43381608544721       -1.02602340760183       -0.01214932302289
C            0.97729904659939        0.24464062387812        0.00894911055743
C            0.12208492149690        1.39958367592806       -0.00081569441794
O            0.44638774328502        2.59558063973471        0.00270076745558
N           -1.28187325894918        1.06932916932636       -0.02573659313506
C           -2.27035755843938        2.15031143729366       -0.04276231612266
C           -1.81783500991363       -0.17515766214349       -0.04491519013970
O           -3.01775043497525       -0.38118446888430       -0.06861996771943
N           -0.91984204577574       -1.25593958334908       -0.03672077130618
C           -1.44957839928537       -2.59588298275714       -0.05814980781896
H            3.62964557401382        1.39540746126632        1.09590142122367
H            4.05134334334626        1.15334208848779       -0.62453241287226
H            2.61995324248384        2.11190471864810       -0.16444869057303
H            3.66415928847177       -2.23102036604160        0.03314808340712
H           -1.74772799327822        3.10370152676770       -0.01833236138935
H           -2.88862092188902        2.08696162211210       -0.94157896060585
H           -2.93888989162835        2.06798036080934        0.81750370796276
H           -1.14343944061701       -3.14087423512685        0.83753344739421
H           -1.11010128647685       -3.12559444186252       -0.95105461648463
H           -2.53642155068967       -2.51582492132412       -0.07787590792806
H            1.31728382269001       -2.92515416350545       -0.02644185009371
25
 energy: 23.656046629805 xtb: 6.6.1 (8d0f1dd)
C            3.22038270590281        1.23419697609731        0.08521546093751
N            2.40004582852356        0.05158358309405        0.01863670456530
C            2.72364766712529       -1.38360359177329        0.02205300183462
N            1.43522388751968       -1.93356098060252       -0.00856876588884
C            0.43664824788936       -1.02655716718169       -0.01239871453039
C            0.98194088503159        0.24407357186820        0.00912896787259
C            0.12695731565823        1.40391000050496        0.00009340123137
O            0.44420511531117        2.59614883788687        0.00332914135737
N           -1.27923232928293        1.07475034330428       -0.02458488583791
C           -2.27192306940023        2.15225709756826       -0.04125343967353
C           -1.81510174830741       -0.17269115218867       -0.04409578326474
O           -3.01336169772475       -0.37968869321378       -0.06804495693082
N           -0.91543486568984       -1.25220104391432       -0.03627680057018
C           -1.44700692147008       -2.59195831273262       -0.05752693689816
H            3.60263805945917        1.41453173628310        1.09872428831266
H            4.05655036506371        1.16533149100764       -0.60980470714643
H            2.60884573375614        2.10768731511681       -0.18153506915881
H            3.67155230718611       -2.28141517133010        0.02980262939164
H           -1.75688451318089        3.10914881596867       -0.01682973516614
H           -2.89070791780382        2.08490395455439       -0.93962912702425
H           -2.94037679529899        2.06550063111122        0.81889483914115
H           -1.14257131035612       -3.13498050027402        0.83930170053409
H           -1.10704905319575       -3.12086498198903       -0.95004039261948
H           -2.53387228908253       -2.51067536957445       -0.07857225094894
H            1.31709906030276       -2.92679878741924       -0.02898467337242
25
 energy: 25.490430228812 xtb: 6.6.1 (8d0f1dd)
C            3.21716506554750        1.23572058178081        0.08494337647575
N            2.39959584066244        0.05093035476518        0.01596880030839
C            2.72272693734534       -1.38403041614896        0.02020162969868
N            1.43814716554507       -1.93303026980736       -0.00909527380980
C            0.43637950249638       -1.02713353499577       -0.01219819246291
C            0.98311593326590        0.24341148593656        0.01002619013042
C            0.12839051975868        1.40708157959407        0.00039689995253
O            0.44266280693082        2.59675914953759        0.00346043827674
N           -1.27700913777318        1.07647212762513       -0.02390784117558
C           -2.27119496837345        2.15268813368500       -0.04039205382756
C           -1.81470362408033       -0.17251096784139       -0.04350011457549
O           -3.01183857352941       -0.37858438862884       -0.06758231248315
N           -0.91375496600618       -1.25138273776462       -0.03576448061809
C           -1.44694809343677       -2.59156814329591       -0.05722761621822
H            3.58673070631724        1.42030632815379        1.09990895158036
H            4.05939685415706        1.16662433845270       -0.60040237417981
H            2.60784572882920        2.10529297385573       -0.19203621758695
H            3.67943619169818       -2.29734521713484        0.02796218111260
H           -1.75897052349896        3.11066418736427       -0.01599795724250
H           -2.88987637035128        2.08420324749859       -0.93872938476288
H           -2.93920124848120        2.06463808428567        0.81996413173567
H           -1.14353213177798       -3.13388855281030        0.83997154294916
H           -1.10680639164598       -3.12003668826091       -0.94950893416939
H           -2.53381169559912       -2.50986051128707       -0.07898745756089
H            1.31826913993625       -2.92639254238709       -0.03044003539978
25
 energy: 26.931092775374 xtb: 6.6.1 (8d0f1dd)
C            3.21631860513757        1.23645348876534        0.08498249891007
N            2.39827867258890        0.05208143049297        0.01337935399212
C            2.72012107022178       -1.38071428034725        0.01822480733243
N            1.43975837772535       -1.93162411065843       -0.00940033151554
C            0.43499355000284       -1.02718809294589       -0.01178928085430
C            0.98311156517792        0.24305505696744        0.01118401308342
C            0.12840776385224        1.40896673956444        0.00047359661828
O            0.44112389297508        2.59776260560974        0.00339961236278
N           -1.27573715849130        1.07625411336701       -0.02336633678867
C           -2.27028435148213        2.15239219973432       -0.03977308534131
C           -1.81559308069473       -0.17305616818696       -0.04300567685513
O           -3.01217727337780       -0.37772783175416       -0.06717793255069
N           -0.91379438919253       -1.25146075312294       -0.03513775516766
C           -1.44785015682734       -2.59221527443848       -0.05710419555497
H            3.57654477393559        1.42324963491973        1.10121011399992
H            4.06263446977662        1.16433080749759       -0.59343060995871
H            2.61000761242115        2.10418163838284       -0.19996362938497
H            3.69055194456596       -2.30484984589252        0.02703587554842
H           -1.75870635577432        3.11057526371490       -0.01538544573599
H           -2.88890848138250        2.08416012370467       -0.93811898513655
H           -2.93803266946713        2.06449535904022        0.82074805477833
H           -1.14478243832105       -3.13446894797984        0.84007161092187
H           -1.10749867893163       -3.12027350491387       -0.94937457691581
H           -2.53465049629156       -2.51038522206048       -0.07918052466147
H            1.31837789978929       -2.92496582728840       -0.03146727497857
25
 energy: 28.604402417774 xtb: 6.6.1 (8d0f1dd)
C            3.21665870412046        1.23704169120380        0.08517783046583
N            2.39708280360066        0.05389624243111        0.01109476375878
C            2.71750972777751       -1.37644512071701        0.01610143167421
N            1.44001699149470       -1.93018758835699       -0.00947937377965
C            0.43351025714366       -1.02659765676817       -0.01112880895062
C            0.98231987087758        0.24339956280131        0.01250875012692
C            0.12746767754367        1.40962331828778        0.00058379134434
O            0.43991077117000        2.59882340472007        0.00321837505802
N           -1.27591817881287        1.07535314990772       -0.02298135270327
C           -2.27021154214202        2.15209277227122       -0.03957636678877
C           -1.81702283928164       -0.17351230206818       -0.04268445504226
O           -3.01358159837821       -0.37728872741152       -0.06706755573807
N           -0.91488236883676       -1.25173776936354       -0.03437893524512
C           -1.44879836672536       -2.59293040531437       -0.05703529242343
H            3.57220868085134        1.42435489037656        1.10207241356545
H            4.06487706908021        1.16152304979199       -0.58979065962295
H            2.61289200750262        2.10482543805373       -0.20369517310540
H            3.70482666549101       -2.31194471012677        0.02706507967024
H           -1.75798792552630        3.11003441350061       -0.01517030944709
H           -2.88877338421662        2.08452972563209       -0.93799146741533
H           -2.93797506853898        2.06488305691243        0.82097349244888
H           -1.14556337588330       -3.13553775151823        0.83988179967790
H           -1.10823858849675       -3.12062049597774       -0.94948591061669
H           -2.53552510491583       -2.51121739115979       -0.07912565045015
H            1.31741178303750       -2.92333219493613       -0.03205252031447
25
 energy: 31.402743506494 xtb: 6.6.1 (8d0f1dd)
C            3.21719651238049        1.23801698039742        0.08546148160768
N            2.39598352527248        0.05625413638451        0.00901156466929
C            2.71507512538439       -1.37183549607817        0.01323839824660
N            1.43940122207154       -1.92878677398755       -0.00943071775761
C            0.43224312069054       -1.02530937620885       -0.01012998614660
C            0.98065766280856        0.24478435368361        0.01407631361909
C            0.12558752112047        1.40978773907518        0.00080492850575
O            0.43870953512302        2.60002139428459        0.00300393431784
N           -1.27768748216991        1.07470129995813       -0.02275200469044
C           -2.27143488187337        2.15227723219224       -0.03981636651435
C           -1.81867349882484       -0.17347344861517       -0.04256874407945
O           -3.01549863227409       -0.37728816092145       -0.06737285654231
N           -0.91651386468561       -1.25183955588406       -0.03338936936339
C           -1.44947046207465       -2.59327697148018       -0.05690246795273
H            3.57239443823411        1.42409280108687        1.10244085814685
H            4.06522203729552        1.15979343882190       -0.58937233405879
H            2.61508886551443        2.10728464180602       -0.20332355809593
H            3.72549784532552       -2.32626925188175        0.02846613133738
H           -1.75785640372925        3.10970343118167       -0.01539145632261
H           -2.88980884924576        2.08530792367426       -0.93838891652861
H           -2.93937391178484        2.06582204514728        0.82065449156277
H           -1.14577062371425       -3.13650620726194        0.83960744071079
H           -1.10873013235087       -3.12061444066656       -0.94966581483753
H           -2.53617621023842       -2.51202179045914       -0.07883664507827
H            1.31615220968104       -2.92159734207685       -0.03239040860815
25
 energy: 39.297743111582 xtb: 6.6.1 (8d0f1dd)
C            3.21694360504353        1.24129302876258        0.08596291809762
N            2.39397618293368        0.06135573175575        0.00561377854548
C            2.71120882892261       -1.36385229570082        0.00542575675173
N            1.43820784430647       -1.92575514368455       -0.00962984344063
C            0.43042983461643       -1.02212054376508       -0.00797113568343
C            0.97658904645429        0.24892854939677        0.01714976310648
C            0.12119508410177        1.41100242649765        0.00166843060866
O            0.43537094368081        2.60288740131373        0.00291080358604
N           -1.28258663345658        1.07506491214654       -0.02250174102169
C           -2.27550238906862        2.15363855454468       -0.04074425978377
C           -1.82157343444409       -0.17244752818026       -0.04255882731774
O           -3.01876050961176       -0.37773175789939       -0.06847710802617
N           -0.91931914576255       -1.25123726182839       -0.03128554700015
C           -1.45008666786599       -2.59294669278956       -0.05640636981424
H            3.57547809192073        1.42328921765894        1.10259031794427
H            4.06268545149423        1.16051482136166       -0.59177080761136
H            2.61628089221037        2.11380951631789       -0.19884230369871
H            3.77455906515991       -2.37394418371002        0.03387378469232
H           -1.75973400336491        3.11016766271809       -0.01633462958409
H           -2.89329091013177        2.08707029212537       -0.93969561304883
H           -2.94374085013911        2.06808608986705        0.81953153801051
H           -1.14556312577066       -3.13723121710300        0.83940450899287
H           -1.10899134099465       -3.11966785612341       -0.94971129185721
H           -2.53689774918898       -2.51312316499160       -0.07812536803875
H            1.31533655689105       -2.91802195651857       -0.03304285826196
25
 energy: 55.962244025047 xtb: 6.6.1 (8d0f1dd)
C            3.21336091712106        1.25585159473566        0.08789408754579
N            2.38482138992940        0.08267544779349       -0.00877506007801
C            2.69640697926890       -1.33260619262553       -0.04293813163695
N            1.43484174711325       -1.91262756986922       -0.01457495693673
C            0.42356468005419       -1.00965558096183        0.00010570763464
C            0.95975280924449        0.26597262924515        0.02931180191370
C            0.10362961560656        1.41818914584957        0.00879409099531
O            0.42078897859268        2.61471397179238        0.00463110145718
N           -1.30158016545022        1.07861067502853       -0.02130876686312
C           -2.29180634113191        2.15969065064159       -0.04517973059935
C           -1.83227994260077       -0.16789434772943       -0.04223862449952
O           -3.03017581269231       -0.37935275115753       -0.07303276680737
N           -0.92918641433859       -1.24810637039950       -0.02227515629200
C           -1.45207145781482       -2.59092011029477       -0.05351708355856
H            3.58764389741892        1.41925292814136        1.10259426488040
H            4.04881059163080        1.16861307608649       -0.60327608540299
H            2.61708128014944        2.14022612399630       -0.17868045258229
H            3.97221752118817       -2.58292844588305        0.07089569016306
H           -1.76907915480131        3.11328007169675       -0.02095397972277
H           -2.90683997703702        2.09351589560975       -0.94577298235949
H           -2.96108902449547        2.07706349692188        0.81431585147581
H           -1.14486857379411       -3.13855635536203        0.83999275606186
H           -1.10940032952670       -3.11535135980400       -0.94856765538155
H           -2.53939892978083       -2.51699432824814       -0.07488598949258
H            1.31707038408245       -2.90363369303185       -0.03552403376722
25
 energy: 52.990275593746 xtb: 6.6.1 (8d0f1dd)
C            3.20080445276315        1.27215475092062        0.08890337423979
N            2.34142744322145        0.12424729339102       -0.01773161218575
C            2.62755499341384       -1.23576324985880       -0.11583208859066
N            1.42926054620989       -1.87952390045602       -0.01691825712370
C            0.40264176645634       -0.98714149217121        0.01161467248295
C            0.92455765112262        0.29095340344054        0.04894843481385
C            0.07394340914938        1.43446863956511        0.01496393432571
O            0.40961637201197        2.62363075717021        0.00501357843684
N           -1.31863069552080        1.08473936499725       -0.02262642589059
C           -2.30541427004517        2.16567603151801       -0.04767773012736
C           -1.84397212941391       -0.16466461441518       -0.04456119964985
O           -3.04100093364178       -0.37884876082289       -0.07612202799716
N           -0.94390984317370       -1.24601101419362       -0.01555521103063
C           -1.45379851339369       -2.59165474341702       -0.05242728763184
H            3.58656992784762        1.41561452992261        1.10261908673737
H            4.03318554357979        1.16090074748610       -0.60674827551937
H            2.61891696489401        2.16903699074602       -0.17330457569306
H            4.29123985852186       -2.90936516120200        0.12265514908280
H           -1.77511553815130        3.11588897819196       -0.02288613223339
H           -2.91616636813288        2.09657038533401       -0.94917801877216
H           -2.97042951797741        2.07992437703269        0.81331031923676
H           -1.14302104183238       -3.13960864218337        0.84006272158518
H           -1.10812888307975       -3.11433076281113       -0.94814807853733
H           -2.54106763535980       -2.52288743346554       -0.07374731647521
H            1.33315110846696       -2.87497787254733       -0.03759313733588
25
 energy: 53.955442647417 xtb: 6.6.1 (8d0f1dd)
C            3.17709981533209        1.27843389130337        0.07698429051879
N            2.28002594965990        0.15021811050292        0.00787199344515
C            2.55970958974795       -1.12505407628139       -0.08262028053067
N            1.43349494057046       -1.82800827634690       -0.01921307540978
C            0.37526341282021       -0.96561603449829        0.01420745552334
C            0.89705984670190        0.30242525070901        0.04973914569731
C            0.04575943287097        1.45943061235412        0.00434431637512
O            0.39048236096404        2.61637847542709        0.00522712423723
N           -1.31557091069483        1.09856619373432       -0.02468244873392
C           -2.30800480229462        2.16852395647366       -0.04398171958149
C           -1.84902495309193       -0.16846676460129       -0.04321831360859
O           -3.04019414632498       -0.37366695493161       -0.07305068699798
N           -0.94968528375632       -1.23863581929864       -0.02202803139200
C           -1.45397706055587       -2.59152618735031       -0.05581574894068
H            3.55958960651861        1.41172520231040        1.08851136590802
H            4.02042830687141        1.14780135532420       -0.59939191793842
H            2.62368764791192        2.17812808439438       -0.19369952916171
H            4.55109723260408       -3.20937964566814        0.12409806498761
H           -1.78354069774349        3.12000426538967       -0.01939017660098
H           -2.91667735096346        2.09400989309707       -0.94467336914637
H           -2.96795253556860        2.07576225577753        0.81862589550448
H           -1.14128437636569       -3.13482517007325        0.83714008342117
H           -1.10549987809865       -3.11262482365068       -0.94931340012856
H           -2.54117272134590       -2.52742017505192       -0.07730687400067
H            1.37110124216702       -2.83715501687331       -0.05133026729912
25
 energy: 54.866478048182 xtb: 6.6.1 (8d0f1dd)
C            3.16859416074036        1.31287819131459        0.07883112163802
N            2.29487447230534        0.17464154134415       -0.00857573971478
C            2.62781826261744       -1.14608048430233       -0.08494121250523
N            1.43297771355228       -1.81211911497521       -0.02471323479148
C            0.37126834681143       -0.95077478780205        0.01924163892928
C            0.88135740890722        0.32939545092434        0.05793489619245
C            0.02401910941228        1.47047689403420        0.01474667023792
O            0.34286800374898        2.65313695952547        0.00523501690588
N           -1.35141850840435        1.10327926232616       -0.02067634616220
C           -2.33719727388081        2.17923579927915       -0.04905721753871
C           -1.87167342270379       -0.16095055212516       -0.04067968999260
O           -3.06598611119287       -0.37217870907361       -0.07992472800208
N           -0.96802173256964       -1.22732473302739       -0.01338921117952
C           -1.46076672591821       -2.58533695296855       -0.05332042445374
H            3.56227203405864        1.42301374239998        1.08979894927720
H            3.99450728891483        1.15882478083991       -0.60904054852497
H            2.62701283932562        2.22809879733517       -0.17728368137181
H            4.81459747964480       -3.53466780753441        0.12828688392654
H           -1.80208958189767        3.12655004607694       -0.02427659948995
H           -2.94304092769390        2.10908277417953       -0.95331564431023
H           -2.99895351967400        2.09303406736623        0.81351460508928
H           -1.14269054774677       -3.13329503011652        0.83623163311213
H           -1.10660868315625       -3.10378565313211       -0.94799547499054
H           -2.54935816480602       -2.53685791387560       -0.07583020916368
H            1.36785274754129       -2.80924796584087       -0.05376755696990
25
 energy: 53.423535206288 xtb: 6.6.1 (8d0f1dd)
C            3.15431724024990        1.31569702102193        0.07801637635073
N            2.25019637585288        0.19758503972091        0.02137470101636
C            2.59750208927726       -1.08928948193543       -0.04499429326090
N            1.42842721396585       -1.78719774736520       -0.01767553534533
C            0.35634781608972       -0.94437582037802        0.00601054062438
C            0.86339631607990        0.33497902034076        0.04279327354205
C            0.01289521590681        1.48461467995456        0.00758448972658
O            0.34441037465008        2.65005828362172        0.00313009350113
N           -1.34301129295298        1.10947057763244       -0.02567449190563
C           -2.33127103895241        2.17704385947949       -0.04478124968245
C           -1.86955092212792       -0.16559826616205       -0.04653529557450
O           -3.06177628933105       -0.36746797690090       -0.07387160507081
N           -0.96928814147547       -1.22639748664627       -0.03013671065697
C           -1.46032763948337       -2.58746677049708       -0.05746326581896
H            3.55721683515457        1.42415121392318        1.08699306943578
H            3.98226216134714        1.14752109379634       -0.60758781263440
H            2.62224984557663        2.22718278552075       -0.18760370022542
H            4.90380669592229       -3.65792142984437        0.09636004478600
H           -1.80107574227031        3.12606915363682       -0.01916012566871
H           -2.93636042840659        2.10365657050597       -0.94781245642887
H           -2.98677758062702        2.08336061784973        0.82056223295853
H           -1.14013256360937       -3.12658129363913        0.83592133762060
H           -1.10565551818493       -3.10856530425887       -0.94892746510269
H           -2.54794086138533       -2.53752282926820       -0.07899838274347
H            1.39235450666999       -2.79397690793705       -0.04048987329574
25
 energy: 53.282717335889 xtb: 6.6.1 (8d0f1dd)
C            3.15448074999010        1.31737255929344        0.07953416250134
N            2.24290076411298        0.20442306780979        0.02885246206707
C            2.59967999727642       -1.08450376233571       -0.02240993525432
N            1.42837099044396       -1.78558890131979       -0.01766036968440
C            0.35770798224215       -0.94621416900437       -0.00093843616897
C            0.86251235245590        0.33533187337009        0.03342181391746
C            0.01075757651334        1.48625091113007        0.00725367111622
O            0.34502909927385        2.65154210472803        0.00393648354508
N           -1.34283704497919        1.11015799707598       -0.02580404821561
C           -2.33324646781550        2.17633419839001       -0.04534259505519
C           -1.86917796952370       -0.16737489666879       -0.04444916037268
O           -3.06190842869761       -0.36691727056120       -0.07064488076904
N           -0.96777099074320       -1.22681027917346       -0.03435368599203
C           -1.46068749909882       -2.58753324980143       -0.05809943913484
H            3.56425153233464        1.42313628546559        1.08615603522386
H            3.97863155450827        1.14653796985011       -0.61034921545553
H            2.62625463975752        2.23068981204220       -0.18313469583646
H            4.90376748343435       -3.67884288297460        0.07941341669930
H           -1.80426092196411        3.12615275371433       -0.02075076377762
H           -2.93890812651328        2.10377119561957       -0.94803963537772
H           -2.98970210486708        2.08536649552776        0.81947394999761
H           -1.14015467072576       -3.12538851591288        0.83571252865929
H           -1.10645336111056       -3.10879267786419       -0.94920093052783
H           -2.54823668679106       -2.53685640218843       -0.07854299365582
H            1.40121421842263       -2.79321561404010       -0.03699984230190
25
 energy: 53.210726792261 xtb: 6.6.1 (8d0f1dd)
C            3.15526002580112        1.31919896697329        0.08148449919901
N            2.23941516434131        0.20939243283104        0.03299379925931
C            2.60513703021088       -1.08317072992251        0.00534375944960
N            1.42970298675858       -1.78638316490487       -0.01372252181579
C            0.36128346016277       -0.94909944193953       -0.00878984004492
C            0.86423138768109        0.33425401814468        0.01969874700103
C            0.00914344027778        1.48539101948932        0.00354445730200
O            0.34718481364350        2.65109549782724        0.00537060267863
N           -1.34305042997699        1.11033008116631       -0.02738428099478
C           -2.33390347059039        2.17650365170765       -0.04428460232889
C           -1.86908622389088       -0.16869134551037       -0.04560138868208
O           -3.06247766645420       -0.36611091922612       -0.06914102098365
N           -0.96628511536524       -1.22695702611472       -0.03858997724710
C           -1.46090952372687       -2.58752826333228       -0.05858210485792
H            3.56764960073354        1.42385492229403        1.08749076803982
H            3.97695891265239        1.14752931984165       -0.61190092234745
H            2.62673133348804        2.23335861774663       -0.17997924232972
H            4.88548219499710       -3.68651320874824        0.05461861475649
H           -1.80402973213443        3.12617354808026       -0.01933463804409
H           -2.93991247019907        2.10548766166066       -0.94704282162643
H           -2.99045807806527        2.08602158495904        0.82062154424571
H           -1.14070530953322       -3.12442948006323        0.83591189086809
H           -1.10619446259233       -3.10974641490343       -0.94873086134163
H           -2.54852732869125       -2.53702879912529       -0.07924125451752
H            1.40957412840828       -2.79390392675919       -0.02771930949042
25
 energy: 53.183236575888 xtb: 6.6.1 (8d0f1dd)
C            3.15656980984665        1.31902626664001        0.08229197492527
N            2.24113977305488        0.20892758633452        0.03263046399465
C            2.60630410532677       -1.08277454160925        0.01098929732035
N            1.43073269407822       -1.78710676761678       -0.01181124248211
C            0.36249936796266       -0.94909977833042       -0.00881196629150
C            0.86524365068149        0.33417613915140        0.01836747664839
C            0.00838235889479        1.48443411820924        0.00331264993358
O            0.34747682852953        2.65043629027451        0.00602054243908
N           -1.34375003574440        1.11026540558542       -0.02669874165112
C           -2.33468083627413        2.17671044288640       -0.04517497379650
C           -1.86913289057709       -0.16852707544517       -0.04445091332446
O           -3.06249976353222       -0.36651531179620       -0.06914380904859
N           -0.96625617606054       -1.22659490329704       -0.03725945534290
C           -1.46066210158541       -2.58717931128839       -0.05851594425555
H            3.57016397189783        1.42232889228067        1.08747222387577
H            3.97677710329176        1.14868375926767       -0.61291048625873
H            2.62745447876502        2.23407463866417       -0.17667557464087
H            4.87851938232127       -3.68500695857227        0.04670335894157
H           -1.80467500415722        3.12637154839869       -0.02064650771084
H           -2.94026083765100        2.10483454975536       -0.94823080227009
H           -2.99182443477049        2.08667164296383        0.81925366107941
H           -1.14033679391226       -3.12496980476626        0.83551797288341
H           -1.10626390409910       -3.10906286891520       -0.94911869842267
H           -2.54829468322065       -2.53684183946770       -0.07880308735980
H            1.40958860486990       -2.79423351713519       -0.02727352303848
25
 energy: 53.159769776314 xtb: 6.6.1 (8d0f1dd)
C            3.15668976131576        1.31923899395451        0.08266237689761
N            2.24324821934295        0.20773398219215        0.03128383829761
C            2.60728119262338       -1.08235103024777        0.01535471340293
N            1.43184529855097       -1.78787481415609       -0.00939310106514
C            0.36325561798316       -0.94877686590066       -0.00935950128652
C            0.86558976545911        0.33432872520955        0.01731240897356
C            0.00802898949654        1.48351398339861        0.00155362686508
O            0.34763567193294        2.65000587193707        0.00547753784107
N           -1.34411790323099        1.10999761670139       -0.02687039997975
C           -2.33452018503581        2.17705279575847       -0.04456805467686
C           -1.86888082692465       -0.16816081927768       -0.04555943217488
O           -3.06227893216159       -0.36695903798191       -0.06999382692264
N           -0.96644488854589       -1.22643121873466       -0.03682201522228
C           -1.46037799899032       -2.58701673952546       -0.05860839764340
H            3.56867111869322        1.42349140735139        1.08829761344348
H            3.97760655893326        1.14912808990422       -0.61208266576072
H            2.62637943387037        2.23412464622428       -0.17750873573202
H            4.87433052995384       -3.68435609516499        0.04223262352283
H           -1.80388990283630        3.12633839965285       -0.01966804996591
H           -2.94020599488691        2.10535712941728       -0.94755409568779
H           -2.99124594478868        2.08624402885522        0.82005138911351
H           -1.14011593762562       -3.12497818606765        0.83549883990521
H           -1.10609913717697       -3.10927334836286       -0.94919301978201
H           -2.54803013799232       -2.53685235970438       -0.07897666703448
H            1.40786029997682       -2.79449655326084       -0.02653310918120
25
 energy: 53.160157243194 xtb: 6.6.1 (8d0f1dd)
C            3.15665066473919        1.31912783119407        0.08277691566587
N            2.24358921548631        0.20731684829504        0.03106233611193
C            2.60704158492945       -1.08140775366800        0.01517936224740
N            1.43203131511752       -1.78778415709120       -0.00909981123799
C            0.36307179414326       -0.94835497037698       -0.00924392054815
C            0.86494419379407        0.33474486861688        0.01835200318332
C            0.00797195325913        1.48355070326983        0.00209051977317
O            0.34747529274475        2.65015971457401        0.00533743285501
N           -1.34419560847233        1.10990179041709       -0.02624124250535
C           -2.33460891622830        2.17698327405821       -0.04501546368150
C           -1.86865704379581       -0.16795261750515       -0.04493869507106
O           -3.06211628548342       -0.36716898572521       -0.06993446313318
N           -0.96647777700288       -1.22660214723671       -0.03613903900498
C           -1.46029012974216       -2.58704086868476       -0.05853494719877
H            3.56928055276497        1.42291797184179        1.08801187391579
H            3.97737307212597        1.14944881776161       -0.61222456015206
H            2.62653816637672        2.23397116326458       -0.17663652847776
H            4.87608976530822       -3.68477662499448        0.04146477820406
H           -1.80396209859612        3.12623812509439       -0.02032107883273
H           -2.93993847585070        2.10485656098746       -0.94818919987860
H           -2.99162474821056        2.08646013064954        0.81938107295253
H           -1.14000838698008       -3.12530641928996        0.83538868920806
H           -1.10613940639374       -3.10905194290904       -0.94932504795648
H           -2.54797752385014       -2.53684023410058       -0.07879067786666
H            1.40615349775296       -2.79436247627042       -0.02737641242459
