25
 energy: -42.495805263742 xtb: 6.6.1 (8d0f1dd)
C            3.15624114781267        1.31481467992387        0.07865202240242
N            2.24566181925747        0.20178268062774        0.02134011788708
C            2.60640537482523       -1.08649775140339       -0.01862698628973
N            1.42792850082343       -1.78681106602859       -0.02096180964547
C            0.36030693546476       -0.94631213350837       -0.00227235015124
C            0.86561169426958        0.33493240101253        0.02811897186640
C            0.01024307953945        1.48388804845087        0.00786630100589
O            0.34348417038386        2.65219381347176        0.00588025969865
N           -1.34346875996225        1.10785987114470       -0.02382537848148
C           -2.33218052535945        2.17603192403446       -0.04489312095431
C           -1.87038949607444       -0.16770124152779       -0.04444899088707
O           -3.06396357804414       -0.36648194777226       -0.07424214774534
N           -0.96860307902030       -1.22582736920635       -0.03094131832864
C           -1.46081350060905       -2.58647822169641       -0.05548409676228
H            3.55851681369810        1.42449734004304        1.08789850217912
H            3.98475535702064        1.14851964588373       -0.60778365523734
H            2.62269319872096        2.22558879764566       -0.18796277121667
H            4.87956097916732       -3.60568955150081        0.11313708483176
H           -1.80040413006031        3.12453675992801       -0.01932193102209
H           -2.93619738181403        2.10375720919719       -0.94860094009830
H           -2.98720159916585        2.08359198921222        0.82050920024404
H           -1.14029469604006       -3.12729129884821        0.83670942149975
H           -1.10549983322573       -3.10626964449154       -0.94740728095038
H           -2.54858510200256       -2.53701688248086       -0.07666848027206
H            1.40022329080608       -2.79262750915241       -0.03814692358600
