25
 energy: 38.802885429977 xtb: 6.6.1 (8d0f1dd)
C            3.16670420023729        2.79083708967776        0.50979133061803
N            2.38736166496809       -0.53068576424993       -0.43953535028738
C            2.50071079166462       -1.77063007184835       -0.09395592633830
N            1.28172530568958       -2.40566360238929        0.12612412793734
C            0.34414098628275       -1.44323518302756       -0.08043237423187
C            1.03829408195243       -0.28790790500629       -0.41495086411354
C            0.32803510298472        0.93322989947916       -0.63851441204255
O            0.74779432617015        1.95552580510088       -1.10589028260735
N           -1.00386528565265        0.85045765892320       -0.17978802298495
C           -1.70525928299591        2.07937432143042        0.15000838158755
C           -1.71519628590127       -0.29441795903554        0.01404599929978
O           -2.91239546783331       -0.27412728734040        0.19209864829214
N           -1.01730785720298       -1.50779176459299       -0.06526657604725
C           -1.85235326857678       -2.69971497882034       -0.18564295947114
H            3.99669515948056        2.88422532916731        1.15462066418546
H            3.36400400108361        2.75221820799239       -0.52397199995313
H            2.15833906204205        2.66935449242895        0.88285741081792
H            3.42095004543492       -2.28590737659166        0.08627609944146
H           -1.01346641819081        2.87543252530377       -0.06769776416279
H           -2.61093373843430        2.22182681490720       -0.42179123522158
H           -1.95144024721837        2.06929568439465        1.21005248391748
H           -1.90807083342397       -3.28958273292917        0.73886154432585
H           -1.59578321405776       -3.36545949088273       -1.01268055953716
H           -2.84178669063873       -2.29684408027280       -0.40108407346749
H            1.12823717424002       -3.39604972176815        0.24569387972732
