25
 energy: 39.833942565569 xtb: 6.6.1 (8d0f1dd)
C            3.10496285464494        2.67942968547327        0.53319322909919
N            2.39008869047726       -0.47824813312811       -0.44984549167331
C            2.52584107972941       -1.71341571203941       -0.08122554215259
N            1.31187049987325       -2.36086044373510        0.14576098160083
C            0.35997747935162       -1.41848804182783       -0.08398248035566
C            1.03659651457162       -0.25423555386581       -0.44237965646009
C            0.30187276600430        0.95062923011953       -0.69862884623309
O            0.69426078896830        1.95211184626880       -1.22907033661225
N           -1.01296865915758        0.85648245090936       -0.17860576228333
C           -1.72664453463048        2.08182139369802        0.13770454414599
C           -1.71267967416331       -0.29869364789819        0.00642766331232
O           -2.90567333179267       -0.29150691189127        0.21936917847409
N           -1.00393709580021       -1.51033839008689       -0.08391376480589
C           -1.84883213704165       -2.70501452611457       -0.17699781896548
H            3.96780079999902        2.75263395345175        1.13742518062974
H            3.24595643186914        2.63987515848304       -0.51226912899217
H            2.10726394078232        2.57480549942751        0.94949830320714
H            3.45139770393781       -2.21890723366565        0.10298922302815
H           -1.04663567096679        2.89168473308149       -0.06011197769641
H           -2.61226552417736        2.22442154428762       -0.44960141387986
H           -2.00682034858570        2.08974565330505        1.19126221698645
H           -1.87009698956213       -3.29614870198081        0.75030002416258
H           -1.63394351109409       -3.37326984263296       -1.01432352723445
H           -2.83513856095619       -2.28299494938937       -0.37929461263876
H            1.17047835314801       -3.35112252114190        0.28320891546520
