25
 energy: 40.230606087152 xtb: 6.6.1 (8d0f1dd)
C            3.07002173235913        2.57268977109783        0.52787022047793
N            2.39167146333874       -0.42297782829679       -0.42555748667165
C            2.54695904433089       -1.65898834983449       -0.05318641991681
N            1.33854984309096       -2.31868410235753        0.16500454251176
C            0.37297784218940       -1.39812518914853       -0.08902988487799
C            1.03776171318394       -0.22086559579923       -0.42841068819886
C            0.28506585427713        0.96430604083566       -0.72672307929554
O            0.63852704681458        1.92864257380975       -1.34700484839423
N           -1.01503381039600        0.86155586916766       -0.16438783514672
C           -1.75145053271458        2.08430447872025        0.11346365784094
C           -1.71016335895549       -0.30359778834587       -0.00461830091601
O           -2.90369008618773       -0.31193402997253        0.21039583570698
N           -0.99297858739494       -1.51360074325514       -0.09650477382914
C           -1.83878358656519       -2.70442860004469       -0.15910649996344
H            3.95713641448130        2.61830634846334        1.10347608362972
H            3.11276119619204        2.62074031684225       -0.53750770972878
H            2.10810953767166        2.47239511644109        1.00124522198524
H            3.48198199419737       -2.15585758173678        0.12021450693857
H           -1.08327218919706        2.90971520604789       -0.05824129437528
H           -2.61223114397217        2.21639093384423       -0.51016469213792
H           -2.06838839821476        2.10658436466141        1.15704225238182
H           -1.82207229984460       -3.30089449409126        0.76365837778725
H           -1.66170458909006       -3.36476398051397       -1.00883466582827
H           -2.83462653141561       -2.27935695106498       -0.33314762786613
H            1.21578227212524       -3.30880667308307        0.30581229810707
