72
 energy: 81.635401704102 xtb: 6.6.1 (8d0f1dd)
N           -1.53584955423599        3.03572766151090        2.31500345948102
C           -1.57236431972078        2.24014224269743        1.34088943546459
C           -2.72698271862892        2.12593812213130        0.37262396934642
C           -3.28523702199146        0.71361575983915        0.35736678572322
C           -4.03389277688457        0.17674257896637       -0.73600168352107
C           -4.52779024501221       -1.10881764290231       -0.78849940949913
O           -5.02264751567616       -1.66183015176827       -2.76544582931369
C           -6.32877586922814       -1.46798803252912       -3.20793949125805
C           -4.34298737874339       -1.87785534011043        0.40673770023335
O           -4.84639804007186       -3.13878057526889        0.50438860725149
C           -4.67286664443879       -3.93258137072131        1.65086303570632
C           -3.61549366959128       -1.35838368566475        1.47048129695499
C           -3.04664420324464       -0.10736070199982        1.43605564701249
C           -2.12619021324356        2.43623105115959       -1.02172161897385
C           -1.21850179967422        1.33668652462725       -1.59753518764154
C            0.08207892928907        1.17921130395320       -0.89386090524655
N            0.58623135881734       -0.01580576140758       -0.47029298743701
C            1.98008636713065       -0.10905025921589       -0.11355111944604
C            2.88938783536601       -0.56366798236604       -1.27483225555207
C            4.33292487349025       -0.46980531727219       -0.86107598944791
C            5.03665825384087        0.70733483357045       -1.02489578428277
C            6.35647950855904        0.81166435916217       -0.60633907149340
C            6.99695610122294       -0.25633175924813       -0.00307271908142
O            8.28473832404453       -0.26960081282533        0.43756790419545
C            9.06062891179511        0.88851999718399        0.26767933876098
C            6.28231893789191       -1.45873248906960        0.18969981562492
O            6.98014477949589       -2.45791750591227        0.79717635507098
C            6.34307635476761       -3.69151993798608        1.00036573525978
C            4.96871810082164       -1.54175669188630       -0.23443593533895
C           -0.15179852557225       -1.24533536992615       -0.62851065899041
C           -3.87229469276012        3.12218392856141        0.69658231417662
C           -4.47694200501978        2.84698209160400        2.07082225503832
C           -3.43810342384603        4.58618580972955        0.62289354913445
H           -4.26072562939032        0.85621785383326       -1.54280978796417
H           -6.77330789286274       -1.19807356354040       -2.28640967240134
H           -6.97826843690289       -2.34032223148839       -3.49170711892779
H           -6.35367882360615       -0.81705267600871       -4.10614056073102
H           -5.03389541107879       -3.42423809756144        2.56874613260015
H           -5.25861772458749       -4.84109416998018        1.46457946157609
H           -3.62051632760086       -4.22932279536625        1.75631552408806
H           -3.39086158846160       -1.98678499904026        2.32083565497710
H           -2.40325661061639        0.20846975439690        2.24697311263053
H           -2.95393540527487        2.60795598784184       -1.71338087559949
H           -1.53698146875417        3.34807096632052       -0.96490761615507
H           -1.76740174401385        0.40204664540084       -1.60678843223439
H           -1.05547550941857        1.61301888419918       -2.65097541713071
H           -0.71709433105105        1.62062983325738        1.01966870958372
H            0.76634048538429        2.01646287928177       -0.80928229845481
H            2.11763314888796       -0.79747359349197        0.72446978303151
H            2.31332826349395        0.88017023235737        0.21180213279268
H            2.70098562606663        0.09199118251469       -2.12657727255369
H            2.63874032306138       -1.58588413106327       -1.56198081752447
H            4.56594230188152        1.55781792336162       -1.49434310603479
H            6.88105581745285        1.74317563013864       -0.75469634947584
H            8.63915938922146        1.74341270121250        0.80884469968264
H            9.17037375643307        1.14852114183529       -0.79033846893759
H           10.03938414404968        0.65111190668667        0.68227569955277
H            7.08642999895861       -4.33240023348245        1.47181567224363
H            5.47570734927355       -3.59940313731560        1.66362818840468
H            6.02849832443565       -4.13920181812796        0.05210963454873
H            4.41049478786046       -2.45344417073631       -0.09445588122161
H           -0.32719810442967       -1.49359542402729       -1.68128159953598
H           -1.11749427868662       -1.17448648280870       -0.13035980752677
H            0.42003792197360       -2.05983698542852       -0.16697114864205
H           -4.65005814725312        2.95586459023220       -0.05490688125289
H           -3.73282231770582        3.03441776229094        2.84026205225131
H           -4.81986897820758        1.82095937559187        2.15895592629262
H           -5.32418497536200        3.50724299414390        2.23520332447873
H           -2.65174887717478        4.78318371871620        1.34677595308694
H           -3.09121147654959        4.85886929478060       -0.36776351114935
H           -4.28697981266733        5.22468096079815        0.86964820997780
H           -0.65213204091049        3.03305721213267        2.82173178062811
