72
 energy: 61.433280377930 xtb: 6.6.1 (8d0f1dd)
N           -1.54033738620102        3.00799526310915        2.31449613367594
C           -1.57181136356559        2.22706696733135        1.32274955399431
C           -2.73368751095061        2.11702828035853        0.35685219074346
C           -3.29989372724601        0.70145450341639        0.33984316465778
C           -4.06261774282042        0.16770714692425       -0.74736751462928
C           -4.53786792320339       -1.14188265740167       -0.87522630362247
O           -4.99525337489896       -1.68276034239739       -2.52244422975122
C           -6.30027656247801       -1.39023680665085       -3.09671236418227
C           -4.35215009487845       -1.89235109367783        0.36300885294578
O           -4.86614730938310       -3.14738014077897        0.48734462051539
C           -4.67056995003850       -3.94992979330427        1.62725997505553
C           -3.61264853202004       -1.37617219628398        1.43037584689071
C           -3.03491972350407       -0.12633714652843        1.41194514846076
C           -2.13645003939561        2.42233522920788       -1.04008032729216
C           -1.22279047009077        1.32388751992770       -1.61040614729112
C            0.07078153975554        1.18587995199130       -0.89133156325037
N            0.59288483229530       -0.02583783583825       -0.46820569896067
C            1.98389870004791       -0.10444611631367       -0.11951289414601
C            2.89836514092157       -0.56329860734251       -1.27825082165482
C            4.33798808601261       -0.46782128788267       -0.86260413094042
C            5.04283147662861        0.70876790437841       -1.02798264627706
C            6.36082659523803        0.81436866140558       -0.60586074979307
C            6.99799913747668       -0.25214389627786        0.00342303941090
O            8.28711008228789       -0.26452824645447        0.44765607077298
C            9.06224666946959        0.89227728535304        0.27286353290767
C            6.28234112148014       -1.45269959647186        0.19882264829540
O            6.97939584738378       -2.45180795928116        0.81175991537841
C            6.34056174454037       -3.68373346505371        1.01564666219511
C            4.97025391795591       -1.53724490090768       -0.22782185975167
C           -0.14101134412393       -1.25394102944660       -0.62806937128227
C           -3.87374671450099        3.11749367894901        0.68468586207993
C           -4.47960519265210        2.84008744332868        2.05797011320005
C           -3.43391896017570        4.58014601355813        0.61579092279839
H           -4.29809210954806        0.87072861037953       -1.52929645963798
H           -6.74070945934562       -1.01181225622274       -2.23426041180860
H           -6.99872774924921       -2.22497773140525       -3.38750258484744
H           -6.25464838717976       -0.76092471609939       -4.00052341685119
H           -5.01707204497969       -3.45370726692734        2.55571372659986
H           -5.26102791462818       -4.85472222081174        1.44012096081727
H           -3.61768863845870       -4.24686089324335        1.71553323253214
H           -3.36890680204136       -2.00473115181078        2.28489484137885
H           -2.38051126628745        0.18847112048312        2.21799381575012
H           -2.96545084495183        2.58849053156773       -1.73191032241664
H           -1.54957496462427        3.33667515279321       -0.98839320547552
H           -1.76334664361203        0.38390068855070       -1.61008738905865
H           -1.06370611170185        1.59113384471843       -2.66823332394926
H           -0.71414375226603        1.62417612482203        0.97978660547700
H            0.76999615959543        2.00901031657485       -0.84060803883296
H            2.12936780525378       -0.78586106369740        0.72568619613385
H            2.31011001659257        0.88922601945463        0.19913958254177
H            2.70762201296180        0.08964661295780       -2.13152872612511
H            2.64593591885173       -1.58643912805139       -1.56069700205789
H            4.57212903625910        1.55716089559354       -1.50103423797200
H            6.88640046192382        1.74523980092141       -0.75621545373371
H            8.64025853765327        1.75016318410811        0.80904979075457
H            9.17345027668149        1.14757769947587       -0.78636784869585
H           10.04091447180281        0.65715262899517        0.68907374853005
H            7.08252631042415       -4.32403566860564        1.49033519331830
H            5.47150751203465       -3.58965603379377        1.67663151245554
H            6.02726019696255       -4.13402494150234        0.06793363208854
H            4.40981109956441       -2.44749554699652       -0.08577809857529
H           -0.31842930628755       -1.50956245063611       -1.68046118137547
H           -1.10755100604066       -1.18296112276767       -0.12925333288774
H            0.43221021271803       -2.06592355139815       -0.16223164067783
H           -4.65169389354661        2.95759410370117       -0.06844476556016
H           -3.73337834882796        3.02190442353526        2.82685659533102
H           -4.82583061009744        1.81439126035434        2.14141657810522
H           -5.32503841113258        3.50250528897703        2.22452433726990
H           -2.64689852199282        4.77147350325825        1.34045669793783
H           -3.08534870592573        4.85397694233566       -0.37408715231834
H           -4.27970993053186        5.22221250140748        0.86369698666245
H           -0.64934004096031        3.00550975649756        2.81007615488898
