72
 energy: 1.926136067958 xtb: 6.6.1 (8d0f1dd)
N           -1.50704682155791        2.84801416730762        2.26248334799454
C           -1.55881627071166        2.16424165583437        1.20755352651233
C           -2.74634210423524        2.07501310503068        0.28205234581638
C           -3.33487572081707        0.66699430822302        0.33876081259593
C           -4.23464030270604        0.21214642707699       -0.64305935035929
C           -4.74938656942114       -1.08519245889925       -0.69653921778293
O           -5.48726504519861       -1.67108028664247       -1.75014043577461
C           -6.35226162090731       -0.87900665624154       -2.57061545521048
C           -4.37947122995260       -1.92657913423475        0.39095256763689
O           -4.95393216091191       -3.16463512051943        0.43507977927686
C           -4.66345660437544       -4.05095770928369        1.48333403734349
C           -3.48675190857928       -1.48838245830079        1.36978381663916
C           -2.93709997608073       -0.21695280009249        1.32558609224243
C           -2.17699282221217        2.33601187123182       -1.13787036742350
C           -1.24716691100562        1.22641394519367       -1.66346284931471
C            0.02760992775167        1.15251478120108       -0.89347488065135
N            0.62813779335725       -0.04874913021152       -0.53965839323138
C            2.00213377767025       -0.06133213748331       -0.15056463289818
C            2.93243042424592       -0.55327597510781       -1.28305354151739
C            4.35891589223877       -0.44650496911444       -0.85083278217902
C            5.07045018583810        0.72093104042546       -1.04263728155981
C            6.38167031892897        0.83205801484130       -0.60354288952600
C            6.99996264960089       -0.22412966331122        0.04099141454488
O            8.28408553788335       -0.23066783122911        0.50437614343005
C            9.06844786790049        0.91571812711825        0.30468858889851
C            6.27656172789616       -1.41834500449653        0.25365175163407
O            6.96442845703614       -2.40716903897486        0.89327000616970
C            6.32450277803227       -3.63770609477898        1.10734190756040
C            4.97001433156190       -1.50830186959832       -0.18493115942482
C           -0.08177441673543       -1.29374230930670       -0.62515568432144
C           -3.87195080309045        3.09134194933967        0.61657841703532
C           -4.48975815804084        2.79767845071713        1.98155341128756
C           -3.40686895039486        4.54548558735657        0.57205416769493
H           -4.54194034469264        0.92265131119000       -1.39339656406836
H           -6.65307082253613       -0.10614774778014       -1.91230651478724
H           -7.20684476650850       -1.48461791886476       -2.97226114124128
H           -5.83560842419474       -0.41179206961350       -3.41615620969467
H           -4.92489178925574       -3.62786416647172        2.46396675303120
H           -5.27911201383963       -4.93152306498180        1.28964843829548
H           -3.60902962064144       -4.34985824279501        1.47753012734685
H           -3.16421830757005       -2.14441955226805        2.16992623808218
H           -2.22040723957471        0.08232254521375        2.07977538905315
H           -3.00926670783895        2.45221149534349       -1.83432725039275
H           -1.61746453573907        3.27205273084618       -1.13009264344235
H           -1.78091384378415        0.27887485215192       -1.62516478112742
H           -1.04243992526444        1.44270268164833       -2.72475584254999
H           -0.69234967947284        1.63956598381622        0.74732542886863
H            0.71052121171797        1.99158465392034       -0.97613757038332
H            2.13008959950095       -0.70315894729487        0.72903547895682
H            2.29751664620501        0.95136884011684        0.13165416251178
H            2.74825576053691        0.07259947402595       -2.15771919409582
H            2.67400973848463       -1.58312333006233       -1.53195711743766
H            4.60607039389920        1.55847922472460       -1.54202554274450
H            6.91383044936244        1.75458593119299       -0.77562682241199
H            8.64698632466830        1.79017331880999        0.81331261204118
H            9.19175313405800        1.14210144339983       -0.75995860495675
H           10.04017205247158        0.68166023082014        0.73676500819843
H            7.06384069042685       -4.26727810546884        1.60022679245945
H            5.44852174224097       -3.53389000910009        1.75756942484466
H            6.02168417688470       -4.10588735727476        0.16435281486630
H            4.40452222856564       -2.41448462351596       -0.03254376576999
H           -0.26285355523112       -1.59625348307844       -1.66481916982888
H           -1.04632002016920       -1.22101428625866       -0.11666827809682
H            0.51593921596000       -2.06548331233552       -0.13465374411166
H           -4.65046398968586        2.96106386922106       -0.14450964800174
H           -3.74398396398937        2.94333002993947        2.75796215966869
H           -4.85605599032710        1.77568433303575        2.03305691756292
H           -5.32421283057691        3.47211547597989        2.15852149877877
H           -2.61680825076333        4.71145324897353        1.29906116538279
H           -3.05164121827982        4.82617755203982       -0.41500806218352
H           -4.24101145399917        5.19784558007811        0.82425800724464
H           -0.61806569190699        2.84072979696271        2.76251979600500
