72
 energy: 8.411718362435 xtb: 6.6.1 (8d0f1dd)
N           -1.51154092749185        2.87431926567462        2.27099077956444
C           -1.56188663678641        2.16970733245288        1.22850716765781
C           -2.74604963599247        2.08108933037193        0.29472395936741
C           -3.33771410993589        0.67314920878907        0.33871913825481
C           -4.20855265635496        0.19951018445155       -0.66547956614854
C           -4.71109384961803       -1.10672447724026       -0.74903498813285
O           -5.37476470573512       -1.70920549325783       -1.87523898189784
C           -6.33530205855060       -0.97102627762673       -2.66521239087971
C           -4.36711626446246       -1.92774779196492        0.36964494124947
O           -4.94325371628977       -3.16305598739405        0.44439290921559
C           -4.66479637403192       -4.03491045714653        1.50778517605726
C           -3.50821865158606       -1.47106441612642        1.37800233515318
C           -2.95463965590312       -0.20260221169066        1.33978082129476
C           -2.17052941582271        2.34986646663338       -1.12119230090116
C           -1.24158264224946        1.24425058499631       -1.65689988295543
C            0.03590081714788        1.16099693330464       -0.88990276149595
N            0.62469695299125       -0.04865615666737       -0.52721531466740
C            2.00131311565471       -0.07087610872943       -0.14643722719571
C            2.92854202025802       -0.55652053480328       -1.28396953959244
C            4.35750577990929       -0.45083676262775       -0.85489498489967
C            5.06783427891764        0.71782322254293       -1.04108469617093
C            6.38030008207897        0.82814896325082       -0.60455414310878
C            7.00096048769308       -0.22947083326553        0.03501275129165
O            8.28671664484369       -0.23721445259033        0.49534848615545
C            9.06789321299050        0.91181767950650        0.29934441013395
C            6.27844365657137       -1.42443726806313        0.24452451958057
O            6.96789016487175       -2.41533413397622        0.88001914521499
C            6.32729772679897       -3.64569497454088        1.09195700396654
C            4.97112881298060       -1.51337164937665       -0.19245044653093
C           -0.09160171288284       -1.28872731446455       -0.62571434319087
C           -3.87304078448475        3.09600833730954        0.62784911994641
C           -4.48874958508655        2.80532654441160        1.99423941655241
C           -3.41185709434380        4.55126195266234        0.57949391923250
H           -4.50235275343743        0.91373728608814       -1.41859878316367
H           -6.60207374571041       -0.22605320625114       -1.97788195741652
H           -7.19885651403349       -1.59888985668008       -3.03468782551466
H           -5.89512989391883       -0.46746972753080       -3.53459640663237
H           -4.93938456894912       -3.60032228269956        2.48157016876031
H           -5.27647338433909       -4.91946644374359        1.31481425030340
H           -3.61018725498752       -4.33358413160568        1.51633951071411
H           -3.19684237831456       -2.12039578755466        2.19041792890183
H           -2.24638534014907        0.10081475846978        2.10192984107962
H           -3.00258827839936        2.47526753588458       -1.81700197753859
H           -1.60628604068022        3.28245909228884       -1.10602552770789
H           -1.77460330510038        0.29661381447161       -1.62257325854524
H           -1.05045086758656        1.46780397190849       -2.72020554698412
H           -0.69575579524708        1.63509600038026        0.78482700148259
H            0.73678291194385        1.98736842378533       -0.97546128569546
H            2.13272988042415       -0.71719448995876        0.72946223246574
H            2.29777017149168        0.93984313567363        0.14170338409734
H            2.74171511191399        0.07493522245816       -2.15379692947519
H            2.67116693116309       -1.58509074825788       -1.53832854262018
H            4.60145441787025        1.55721020421615       -1.53559756570005
H            6.91043427196142        1.75303685620559       -0.77142884065620
H            8.64545141889871        1.78342272817776        0.81228518284077
H            9.18839438796229        1.14311401573177       -0.76457736881180
H           10.04129305505465        0.67876467443899        0.72822881256229
H            7.06673862104987       -4.27754746914421        1.58177490672786
H            5.45231194073967       -3.54309377200225        1.74377650398019
H            6.02230499232860       -4.11054032184389        0.14806056939471
H            4.40577512389864       -2.41980153080596       -0.04164955549962
H           -0.27433692071793       -1.58507462755765       -1.66722249364379
H           -1.05638034963717       -1.21474045527770       -0.11868878630114
H            0.50136444486427       -2.06783476999938       -0.13800857666287
H           -4.65201639046809        2.96132352360405       -0.13173026116194
H           -3.74165690137093        2.95691222073927        2.76860683392517
H           -4.85163454250492        1.78252747230643        2.05118612298491
H           -5.32504609852395        3.47790037292662        2.16946293290376
H           -2.62233579938048        4.72072232931648        1.30645496154058
H           -3.05745144964810        4.83074212448686       -0.40788392595936
H           -4.24769925514885        5.20243275529358        0.83079245698871
H           -0.62293368496675        2.86667249385715        2.77205572863941
