72
 energy: 112.861555249520 xtb: 6.6.1 (8d0f1dd)
N           -1.49033484006430        3.16061566369365        2.31511386755638
C           -1.55199853388373        2.28000950931348        1.42524743164253
C           -2.68680579783593        2.16818502725236        0.43913202812877
C           -3.22331058708482        0.75803551131110        0.43859722094740
C           -3.96637675141140        0.22287440036396       -0.63282654554018
C           -4.50206143967833       -1.02704622050782       -0.55795750730807
O           -5.18981462893432       -1.52798954878332       -3.85816398696582
C           -6.46801373143771       -1.59219944940534       -3.54770032329794
C           -4.29182332553647       -1.84593283391751        0.56050814624858
O           -4.81649560572291       -3.10042961204371        0.59071935070525
C           -4.69957612418356       -3.85272944777825        1.76245290588556
C           -3.55982673198533       -1.32556542175062        1.60618406444107
C           -3.05994744128767       -0.04647811171364        1.53692060726536
C           -2.07921910036582        2.50101846910188       -0.94520275635138
C           -1.18967194143469        1.40997221706267       -1.55469169670881
C            0.10192074281307        1.20043852818571       -0.86011614294102
N            0.57360319730536        0.00809362067038       -0.46488273238315
C            1.95856413104572       -0.12327235440217       -0.08103181407889
C            2.85827108515438       -0.56359351399137       -1.25482409517634
C            4.30691306763462       -0.47703552783605       -0.85322153070432
C            5.00860882057499        0.70278281945578       -1.01025175553813
C            6.33473098016223        0.80285351936578       -0.60954208450525
C            6.98391344144414       -0.27518179083450       -0.03352785341971
O            8.27480020274544       -0.29548105562272        0.39085696965735
C            9.04911107740451        0.86796505396981        0.24342826102345
C            6.27457282490792       -1.48410337081618        0.14544732923064
O            6.98412286094649       -2.48919068010700        0.72486142350687
C            6.35662047402358       -3.72926818492862        0.92412301548918
C            4.95643163545177       -1.56298452649849       -0.26468656369961
C           -0.18206631009483       -1.20710425958205       -0.64001105464503
C           -3.86053196712755        3.14091747283010        0.75340898027271
C           -4.45954878042909        2.88059386404259        2.13338114895388
C           -3.46144587574492        4.61321682806564        0.65592079359056
H           -4.11718043216748        0.82104285800571       -1.51854180978616
H           -6.16091214261912       -1.51925190252608       -2.28955448415284
H           -7.00230056037884       -2.52232349503175       -3.84474707034707
H           -6.98835327819068       -0.80054100024149       -4.13853312082694
H           -5.13834040418657       -3.28468989874911        2.60686185031447
H           -5.25605415076261       -4.78110871639868        1.58523146101781
H           -3.64856277228887       -4.12765094275391        1.94348660206345
H           -3.42271534537744       -1.90807761189299        2.48179930296660
H           -2.51596097973262        0.30571433899717        2.37784812583584
H           -2.89399020711735        2.71546373072784       -1.64002806340131
H           -1.47415575160799        3.39670290258592       -0.84924184766156
H           -1.76101741072121        0.49127184470404       -1.60851482597383
H           -0.99682209670462        1.72141151783709       -2.58807035914354
H           -0.73222469890825        1.57666242143512        1.20707962717449
H            0.75185001470781        2.03643815876017       -0.65391489250969
H            2.06288343834910       -0.84534472339660        0.72691785099101
H            2.31768573087028        0.84233138195430        0.27602673150881
H            2.66736556260740        0.10200411082716       -2.09882071857143
H            2.60436448606966       -1.58129998038819       -1.55483743636089
H            4.53364541953687        1.56066207377315       -1.46209371448111
H            6.85555801433167        1.73591999268904       -0.75222726786584
H            8.63093276745178        1.71021456586826        0.80670754885869
H            9.15286427832212        1.15155018685603       -0.80911815175745
H           10.02961600268446        0.62141340260933        0.64955552861566
H            7.10969285025006       -4.37132369295236        1.37851260807116
H            5.49746112875653       -3.64930079048861        1.59941461485505
H            6.03356890745314       -4.16682059501954       -0.02580018422161
H            4.40889357268276       -2.48230510451991       -0.13670527393780
H           -0.35576889584047       -1.41935989299609       -1.69603820313843
H           -1.15277750801723       -1.13404939007164       -0.14293763445384
H            0.36790003135741       -2.03748328160400       -0.18845359824658
H           -4.64194140416144        2.94633607712676        0.01094995847346
H           -3.72094343323424        3.09801863731025        2.90061678580056
H           -4.78350150318722        1.85094893599130        2.24725232392052
H           -5.31779168805229        3.53089486135477        2.28784517499577
H           -2.67735095142402        4.84027092689830        1.37267540603123
H           -3.12424859219355        4.88295084949255       -0.33901674269515
H           -4.32955171774697        5.23071561473991        0.89463810478055
H           -0.64831030121607        3.15599858951816        2.87905396349018
