72
 energy: 38.050635572495 xtb: 6.6.1 (8d0f1dd)
N           -1.46152365201070        3.17974765911772        2.35909486247185
C           -1.51293251237130        2.31473085580412        1.44594103371102
C           -2.66023053143980        2.18142320864501        0.47271951119718
C           -3.21016041553899        0.75127481908607        0.49326853621327
C           -4.00630427587873        0.22041881235625       -0.54018578955197
C           -4.57135105522908       -1.05911812218771       -0.51595626336464
O           -5.58434680894671       -1.69516771257221       -4.35133465483843
C           -6.76227292044180       -1.52721597238553       -4.13865218913715
C           -4.28273244761335       -1.82895943833385        0.63711256246998
O           -4.83086435638822       -3.06892933096980        0.67408189097012
C           -4.71472963991551       -3.82884217903630        1.82697627963869
C           -3.50046096891167       -1.32350218863533        1.68341966613808
C           -2.99961794361686       -0.04185085912261        1.60597808239491
C           -2.04341844010074        2.53696932515619       -0.90775175633427
C           -1.19234816626276        1.42296338601770       -1.54745354883265
C            0.08493722705149        1.19891099066567       -0.83098283268994
N            0.59252911786175       -0.02420974676903       -0.50206195699943
C            1.96187753169736       -0.13501660444299       -0.08844711505723
C            2.87195470875805       -0.56333487948480       -1.25817342963738
C            4.31146276098981       -0.47728292831674       -0.86014910522185
C            5.01282529874150        0.70376303717055       -1.01397060044682
C            6.33908794146369        0.80149932143831       -0.61417893232062
C            6.97629130152621       -0.28643877945112       -0.04751946397457
O            8.26948922643904       -0.30836427902523        0.38307305837554
C            9.04158133417449        0.85394496438254        0.23642360242340
C            6.26705352168728       -1.49824240627239        0.11658850939185
O            6.98471738635736       -2.51154590054452        0.67228461683796
C            6.36706084138785       -3.75705900748876        0.86306721196815
C            4.94689831383571       -1.57562406152350       -0.28312461356827
C           -0.18505164269430       -1.22714743607803       -0.64872168793709
C           -3.83657347020549        3.15226301987024        0.78476072627246
C           -4.42882882205696        2.90145431998066        2.17155489389172
C           -3.45887117308388        4.62963610744389        0.67280226084458
H           -4.20421963373402        0.84859974206114       -1.39647173174974
H           -5.35833813561943       -1.42583784937301       -1.45559776441329
H           -7.48214570405897       -2.33815608146153       -3.92207251559885
H           -7.28541538664242       -0.62495836762918       -4.52190046836310
H           -5.14901332802715       -3.30359848077196        2.68254302600829
H           -5.26653233365374       -4.74833717744098        1.65817404972753
H           -3.67264666427393       -4.05982504379855        2.05501631799701
H           -3.32331101345418       -1.91487779495489        2.56497556894317
H           -2.45975893072298        0.33999844243981        2.44639077276755
H           -2.84269329661634        2.80487800394468       -1.60008182044164
H           -1.41825008811386        3.42070796584536       -0.77193872855957
H           -1.77412539124464        0.50441779768391       -1.61428024157646
H           -0.95818234827880        1.76330900908277       -2.56791983879022
H           -0.69607695482246        1.60046484462097        1.23659123431901
H            0.76014027177532        2.03092733521805       -0.70971633555903
H            2.04586708979847       -0.86438836550802        0.72810562416020
H            2.31060933612281        0.83043523239065        0.29403020543079
H            2.67262168566065        0.10355307495184       -2.09914514663719
H            2.60796375425130       -1.57982897784343       -1.55232234081189
H            4.52561132110175        1.55971988753090       -1.45596887516688
H            6.85818630679319        1.73516528819042       -0.75521973916552
H            8.62552956610922        1.69306486188857        0.80400606001813
H            9.14800550744341        1.14480289148373       -0.81405684407947
H           10.02198169958602        0.60126816145577        0.63477730697614
H            7.13028306373581       -4.39797905335410        1.30262512123289
H            5.51528472035849       -3.69008896465486        1.54877592037296
H            6.03693683115147       -4.18916252981475       -0.08743286840363
H            4.39513953981363       -2.49553956104863       -0.16515908274405
H           -0.36883064774096       -1.47356683731292       -1.69940521990265
H           -1.14912246236014       -1.12242833788824       -0.14504161785734
H            0.34993855926906       -2.04905531375048       -0.19442961848975
H           -4.61556634618342        2.93628768157273        0.04475236678665
H           -3.69369169264065        3.14711074891855        2.93355163035005
H           -4.72627136113704        1.86455672469185        2.29323470481308
H           -5.29749380877030        3.53568920628712        2.31776050187173
H           -2.67552205729173        4.86766375864104        1.38617879867998
H           -3.11502829033467        4.89351982944834       -0.32345822324280
H           -4.32402567333061        5.24673090680574        0.90432648443194
H           -0.60355528619900        3.18064175690150        2.90074694871188
