72
 energy: 109.079788312803 xtb: 6.6.1 (8d0f1dd)
N           -1.51024587736855        3.11746472366003        2.31373856058110
C           -1.56854722850268        2.26297128961890        1.39738985733478
C           -2.70397371337799        2.15276431150744        0.41442962043228
C           -3.24963282828924        0.74652471864198        0.40313515874572
C           -3.98913623609448        0.21113704323613       -0.68200337638531
C           -4.51790298858923       -1.04064376694844       -0.62307593961359
O           -5.03801670534153       -1.53300596260884       -3.39487760081929
C           -6.38384600820414       -1.61897322715150       -3.42397932662265
C           -4.31316512257482       -1.85317424303523        0.50367064677108
O           -4.80717180488656       -3.11952598078169        0.55144526020983
C           -4.68462712943821       -3.88412922197827        1.71948569824645
C           -3.59919668308675       -1.32545793194922        1.55767665150132
C           -3.07243314217199       -0.05974810749586        1.49781084803150
C           -2.09658902618742        2.47512398715415       -0.97284083603872
C           -1.20047993336668        1.37850714243596       -1.56871523356038
C            0.10014386699576        1.17992980005708       -0.87632908007385
N            0.57455699200411       -0.00199613625567       -0.45174572707426
C            1.96788555200922       -0.12227711343457       -0.09235498086953
C            2.86906807462065       -0.56554286305903       -1.26326990310119
C            4.31683825383980       -0.47471604256142       -0.85640751919924
C            5.01889389870999        0.70418160539168       -1.01618154652189
C            6.34218960701892        0.80510151963852       -0.60790038527872
C            6.98952829317219       -0.26817827950238       -0.02166695950640
O            8.27760902117445       -0.28433960153222        0.40920612707942
C            9.05400200506291        0.87673055895564        0.25257837090222
C            6.27877449702758       -1.47494937686683        0.16292530158401
O            6.98348010375506       -2.47747623980390        0.75378552095608
C            6.35118959224996       -3.71457980483113        0.95462858529211
C            4.96220670364882       -1.55497936644254       -0.25294773996418
C           -0.17635330654378       -1.22044119244595       -0.63091298160797
C           -3.86693499563331        3.13456498815030        0.73098705379933
C           -4.46757369486890        2.86733619860848        2.10857417810877
C           -3.45194697887250        4.60292173573433        0.64381197953577
H           -4.15196868300151        0.81801737100116       -1.56821844599729
H           -6.52546898985727       -1.53559046286247       -2.34222697232944
H           -6.84491187415120       -2.54182420466893       -3.79808048690079
H           -6.72097938637160       -0.85602144308523       -4.16103682963324
H           -5.08863243549726       -3.33546292530871        2.59742453885703
H           -5.25570278899435       -4.80332535049286        1.53735510735691
H           -3.63430126887535       -4.17238956490501        1.87213040695706
H           -3.45630124663684       -1.93373397104508        2.41426939544713
H           -2.47417892245480        0.26765921837777        2.32577212686692
H           -2.91733015362318        2.67009888147073       -1.66667365193065
H           -1.49922301283879        3.37772177881661       -0.89444002083669
H           -1.77208064431753        0.45782465633137       -1.60328708568690
H           -1.02674508446798        1.68292452673971       -2.61200237184936
H           -0.72682286467765        1.59792707553041        1.13420871748441
H            0.75860930196898        2.02940651810102       -0.71692357221073
H            2.08752941932004       -0.82934753211936        0.72678837286417
H            2.31624790027184        0.85457566150665        0.25017557258891
H            2.68043701512198        0.09785664090398       -2.10962801401806
H            2.61748473486657       -1.58445804951509       -1.56116141905348
H            4.54703784378078        1.56031179767978       -1.47447062325298
H            6.86563155379793        1.73703685332745       -0.75333820645322
H            8.63462773932262        1.72368074659728        0.80760035872360
H            9.16012997595576        1.15087174933127       -0.80199648677687
H           10.03358904594008        0.63305203814402        0.66236589939591
H            7.09989754765332       -4.35647939575625        1.41594509220635
H            5.48866203324121       -3.62919530884393        1.62495437976316
H            6.03164117800119       -4.15558440881714        0.00515269883080
H            4.41055940460852       -2.47117339831174       -0.11990056701625
H           -0.34851923809539       -1.44675212843684       -1.68707045058009
H           -1.14337879303629       -1.14991182760828       -0.13537610404623
H            0.38415216895888       -2.04688918189005       -0.17947116454153
H           -4.64647273273216        2.95151010225519       -0.01525695203890
H           -3.72714776373747        3.07215046323446        2.87733481360896
H           -4.79973907978750        1.83936084755797        2.21206481467559
H           -5.32107733236753        3.52170535504901        2.26691113931321
H           -2.66704342828040        4.81677093263087        1.36417578600279
H           -3.11037198476544        4.87311060290232       -0.34920910643219
H           -4.31178670739842        5.22990838400747        0.88562682572983
H           -0.65281108492832        3.10762762116131        2.85699833165542
