72
 energy: 101.804108609521 xtb: 6.6.1 (8d0f1dd)
N           -1.52391438483996        3.09942299674187        2.31530555640053
C           -1.57444281037446        2.25749653011468        1.38324615169836
C           -2.71325219807376        2.14373545531862        0.40218821373589
C           -3.26243684783892        0.73590114930249        0.38603720363982
C           -3.99859468473083        0.19703451745221       -0.70492296296528
C           -4.52674898060453       -1.06228211210253       -0.67982814089952
O           -5.02636922035032       -1.57233032137815       -3.15051185950112
C           -6.35067805561858       -1.59806211889735       -3.36364240324594
C           -4.32468273463217       -1.85906329257303        0.46965374701400
O           -4.80608626738460       -3.12990062877876        0.53010557360889
C           -4.67868171501031       -3.90053427317900        1.69589081023560
C           -3.61234071228220       -1.33261374232826        1.52927928417856
C           -3.06852984329196       -0.07420495361286        1.47564999807173
C           -2.10652397593301        2.46190184659422       -0.98806350059792
C           -1.20531985894029        1.36522436206915       -1.57750166942210
C            0.09700071069333        1.17946474265042       -0.88153082245396
N            0.57890936675790       -0.00713021709443       -0.45890002471016
C            1.97148502109959       -0.11708784996073       -0.09946436072874
C            2.87594570462090       -0.56488858061238       -1.26672635939694
C            4.32220034351655       -0.47245639052968       -0.85655080076969
C            5.02499535649179        0.70558593453391       -1.01845730986459
C            6.34736345605831        0.80703186639323       -0.60690776057226
C            6.99287956547522       -0.26451516587242       -0.01526600311423
O            8.28143846531602       -0.28032788682847        0.41815956050167
C            9.05671796590558        0.88043244624085        0.25761120360471
C            6.28047178917242       -1.46972261651521        0.17206279866243
O            6.98225822988869       -2.47092691378623        0.76837383183761
C            6.34843058337598       -3.70693224852154        0.96995651908003
C            4.96486096967363       -1.55045484542041       -0.24657184741647
C           -0.16949484967070       -1.22917889038841       -0.62913399959052
C           -3.86948635796752        3.13085431524391        0.71952826721637
C           -4.47124577317393        2.86037256916791        2.09588590046312
C           -3.44741834611341        4.59773907723512        0.63678734055222
H           -4.18766906190861        0.82896487615942       -1.56274708351110
H           -6.68139439869986       -1.49787441351124       -2.33234013456178
H           -6.88132732608693       -2.50885042741217       -3.69953499434475
H           -6.57490899300234       -0.86807841999676       -4.17353088785960
H           -5.06960752569047       -3.36523420544095        2.58856752351313
H           -5.25560382179467       -4.81578662364107        1.51172068935920
H           -3.62853536891119       -4.19359376598448        1.83543808282954
H           -3.43899238952305       -1.95329889391639        2.37801442754615
H           -2.45200490259206        0.24780605601351        2.29810836309785
H           -2.93007470004170        2.64846420719420       -1.68115068371462
H           -1.51205872507824        3.36770289495582       -0.91765713790297
H           -1.76827040032019        0.43932976533539       -1.60438924980315
H           -1.03533217927804        1.65937166816716       -2.62363291304421
H           -0.72482383219127        1.61040747455955        1.09931306559131
H            0.76360436318917        2.02716548747475       -0.74776614363555
H            2.09673483579964       -0.81785789983642        0.72545490810402
H            2.31546686264385        0.86331423588476        0.23723963204278
H            2.68748451726865        0.09587451650297       -2.11517708858023
H            2.62465273965105       -1.58476861510680       -1.56103712498242
H            4.55366610944154        1.55990402897240       -1.48069545282892
H            6.87100800578086        1.73889215316368       -0.75351510182642
H            8.63615073147307        1.72989535470719        0.80809756052200
H            9.16372199608016        1.15014582471202       -0.79811926296561
H           10.03622531457776        0.63933742858198        0.66869305173058
H            7.09528428996680       -4.34855606408954        1.43463449658905
H            5.48429761197485       -3.61927954282634        1.63790774824454
H            6.03068058274158       -4.14997511622195        0.02079626594704
H            4.41091402667180       -2.46512045814929       -0.11128237636109
H           -0.34111691095416       -1.46217562260803       -1.68427209292676
H           -1.13563276341640       -1.15803525889210       -0.13342895377133
H            0.39620994875472       -2.05070266813945       -0.17474121788455
H           -4.64805423089899        2.95323562232234       -0.02861472266794
H           -3.72980428304712        3.05909747456095        2.86520761263926
H           -4.80688669836887        1.83303172732556        2.19396329260033
H           -5.32250006133507        3.51655948022739        2.25633387834090
H           -2.66179784048635        4.80588041286066        1.35817239744734
H           -3.10413533810012        4.86855478879293       -0.35546546360502
H           -4.30310109032688        5.22938138837733        0.88067241744748
H           -0.65649153169757        3.08518171379183        2.84596852884444
