72
 energy: 92.764792142423 xtb: 6.6.1 (8d0f1dd)
N           -1.52977413364024        3.06654615524068        2.31355509520180
C           -1.57392312921346        2.24774803148905        1.36092338088550
C           -2.72074566835946        2.13387319700563        0.38706805515851
C           -3.27446338477026        0.72370939549158        0.37046398878884
C           -4.01173381879875        0.18483332997867       -0.72613987942539
C           -4.52937822631017       -1.08527811063339       -0.73506401156270
O           -5.02948460864589       -1.61652708868860       -2.94241281462065
C           -6.34496636127355       -1.54158891075619       -3.29093410696488
C           -4.33528834504182       -1.86750138483435        0.43805279009560
O           -4.82424143313368       -3.13527470878847        0.51560084901418
C           -4.67530117093535       -3.91625345253274        1.67355255110893
C           -3.61754181885527       -1.34511826142065        1.50164673508379
C           -3.05957675107802       -0.09097776631820        1.45572512922405
C           -2.11706679655462        2.44965962189460       -1.00480329567478
C           -1.21229368811914        1.35202820746160       -1.58645413176555
C            0.08860559853257        1.18566605654094       -0.88495900847925
N            0.58055443010387       -0.00599455675109       -0.46735303839575
C            1.97466923343091       -0.11173982052417       -0.10735668522644
C            2.88181019589335       -0.56346859708110       -1.27126417892745
C            4.32739640925584       -0.47119216313474       -0.85959024380071
C            5.03084712315500        0.70642933243488       -1.02165155989347
C            6.35209702300034        0.80920115004867       -0.60668110066213
C            6.99542404580250       -0.26059957479059       -0.00938299906283
O            8.28361744351269       -0.27547567472414        0.42758734906479
C            9.05888796261281        0.88429463963529        0.26265579853137
C            6.28147601696108       -1.46427862631147        0.18068662306679
O            6.98102257711099       -2.46433230441361        0.78269866801380
C            6.34567788861552       -3.69921589707435        0.98512971685728
C            4.96678075720788       -1.54603853235923       -0.24081561649072
C           -0.16149338591497       -1.23546318972125       -0.62845187147107
C           -3.87104413687687        3.12632615805185        0.70812064335840
C           -4.47417659390030        2.85374120931936        2.08349162396517
C           -3.44256016961379        4.59176391404622        0.62989640812775
H           -4.22362099181129        0.84311896428166       -1.55579800113039
H           -6.80156800038237       -1.38713453623175       -2.32542725402213
H           -6.92635212487528       -2.44291133348194       -3.59906575052555
H           -6.43580575978830       -0.87571763982963       -4.17841565101887
H           -5.05088371506436       -3.39436233859157        2.57988227396733
H           -5.25678628458863       -4.82828146353791        1.48898732996927
H           -3.62400564490102       -4.21162231566143        1.79647961829889
H           -3.41491864081627       -1.96856004893110        2.35356644020959
H           -2.42875333851110        0.22738294416119        2.27208523176298
H           -2.94273464235645        2.62867700473230       -1.69687234384770
H           -1.52484780332950        3.35826931224519       -0.94100720892618
H           -1.76696425621677        0.42090025814532       -1.60474078175300
H           -1.04552346340505        1.63591273582766       -2.63642314606639
H           -0.72069334984800        1.61506470372880        1.05885760482794
H            0.76682229472319        2.02717105173848       -0.78007907430913
H            2.10623966560289       -0.80717320782139        0.72375209210584
H            2.31516934506001        0.87219715614057        0.22453805488986
H            2.69415375706506        0.09428420784124       -2.12158129128434
H            2.63141515270131       -1.58478801875152       -1.56139901175928
H            4.55978196599581        1.55870952715442       -1.48761226205815
H            6.87593880771823        1.74116688984154       -0.75367547967268
H            8.63777945106886        1.73645557322556        0.80854328427851
H            9.16716086595594        1.14933470982959       -0.79421953360179
H           10.03801966356770        0.64523748988915        0.67545146442152
H            7.09065051937797       -4.34056794772883        1.45327153295894
H            5.47992178869855       -3.60927675548716        1.65070604483805
H            6.02959523029730       -4.14455158570557        0.03640639105105
H            4.41077474524683       -2.45924688808512       -0.10300771290822
H           -0.33357825029597       -1.47700391330181       -1.68226221493773
H           -1.12718088571204       -1.16601506157797       -0.13170089469356
H            0.40900793714342       -2.05250569498054       -0.17086477564998
H           -4.64927542854918        2.95454651586171       -0.04165927958279
H           -3.73143594937589        3.04685256670313        2.85288599621641
H           -4.81355563983029        1.82712563013213        2.17664831190934
H           -5.32336489411079        3.51196464533938        2.24595266814503
H           -2.65661427218326        4.79437465969600        1.35260794826014
H           -3.09741520489930        4.86355550436370       -0.36153885506419
H           -4.29486970505253        5.22673477422039        0.87524655171488
H           -0.65436924909417        3.05929043645058        2.83278416521475
