72
 energy: -5.163319695059 xtb: 6.6.1 (8d0f1dd)
N           -1.49653168373209        2.79684369134753        2.24382959962709
C           -1.55195424220934        2.15621043918469        1.16472521884735
C           -2.74618612154345        2.06495008701509        0.25640566787582
C           -3.32152977603214        0.65465498355603        0.33116921422513
C           -4.28141390833692        0.23559204466799       -0.59743558153245
C           -4.81762324075970       -1.04246026408444       -0.58632297836795
O           -5.71147389215986       -1.56002234495378       -1.49546527924646
C           -6.38293731489735       -0.69835160739650       -2.38655008017260
C           -4.39323262023210       -1.93252969432641        0.43075009730041
O           -4.97861030043144       -3.16485016616749        0.41941685065482
C           -4.66290371742355       -4.08305181072776        1.43305228333358
C           -3.44275548204854       -1.52338503984526        1.35016225725210
C           -2.90225984712242       -0.24517014989669        1.29380425092651
C           -2.18954032051836        2.31290459717883       -1.16999652998376
C           -1.25867051172864        1.19354289818751       -1.66637387423885
C            0.01120615669199        1.13539025566853       -0.89496724254002
N            0.63195425406052       -0.04772513876769       -0.55611917997968
C            2.00169756149222       -0.04132775567774       -0.15598276747857
C            2.93453837351776       -0.54405803030386       -1.27994456606896
C            4.35920684131131       -0.43732064953617       -0.84192122670860
C            5.07455853522948        0.72762458429207       -1.04347482433738
C            6.38489565655970        0.83916182997803       -0.60295214327142
C            6.99764801076874       -0.21384424328310        0.05199896158703
O            8.27800074383198       -0.21769200708501        0.52054161113230
C            9.06862188890485        0.92382125519898        0.31491020484328
C            6.27193880742876       -1.40641444242240        0.27112979254794
O            6.95657284266384       -2.39092336262521        0.91855277592177
C            6.31903433643980       -3.62212919384571        1.13787743724628
C            4.96658683987284       -1.49826948085450       -0.17031693229673
C           -0.06183817344152       -1.30139247423055       -0.62258203154994
C           -3.86987245025406        3.08209043653560        0.59453676858222
C           -4.49253651224986        2.78246128815089        1.95644147227209
C           -3.39786381346536        4.53452977435674        0.55643382885803
H           -4.61839418254927        0.93822015331519       -1.34193475164712
H           -6.77725432800984        0.13779353930188       -1.82507023168512
H           -7.19423739135935       -1.27320019512664       -2.85786055712583
H           -5.72177029395634       -0.31394605768703       -3.16918812790941
H           -4.89635807003030       -3.68597483557467        2.42812586533112
H           -5.28677173217039       -4.95477049755209        1.23637804349870
H           -3.60927945067617       -4.38145841395288        1.39569783664482
H           -3.09957817475800       -2.19324353587133        2.12477467121659
H           -2.16817190935629        0.04327945622632        2.03189390309884
H           -3.02126454985038        2.40678550469595       -1.86899210227130
H           -1.64035549009997        3.25599058904374       -1.17898254815423
H           -1.79652176849944        0.24714226133842       -1.62423117921927
H           -1.02114616462955        1.39859941063389       -2.71951161507625
H           -0.68623419641978        1.64784551100959        0.67377397737845
H            0.66531417313455        1.99135898078940       -0.95899918208323
H            2.12280050538338       -0.67697105090274        0.72819244289422
H            2.29912862164761        0.97422327535637        0.11708140083927
H            2.75969105628049        0.06968109396835       -2.16524837415226
H            2.67781284406827       -1.57726206492316       -1.51881066994595
H            4.61622375049737        1.56078500311854       -1.55546799510755
H            6.92072821621053        1.75712933133528       -0.78465779292235
H            8.64980100089427        1.80373389663923        0.81563287906675
H            9.19790035087594        1.14062198156326       -0.75098931084959
H           10.03694853111094        0.68771574286593        0.75335416734955
H            7.05869223092992       -4.24650130987161        1.63674155944941
H            5.44159429960288       -3.51646055089278        1.78558662777884
H            6.02110079007253       -4.09767285340832        0.19702250744470
H            4.40189513369728       -2.40472797120050       -0.01480194024840
H           -0.23712562522166       -1.61508730036963       -1.65837976791587
H           -1.02659533310212       -1.23487380461789       -0.11186415800675
H            0.54536745889837       -2.05732303101124       -0.12750629097784
H           -4.64682646569679        2.95881071029118       -0.16928088633999
H           -3.75179755476594        2.91600507560610        2.73879395786909
H           -4.86749880932822        1.76279150435074        1.99708785167755
H           -5.32214974604760        3.46189524930961        2.13658686436600
H           -2.60559655609639        4.69462254808045        1.28189736449087
H           -3.04332930943205        4.81964453645081       -0.43056983074090
H           -4.22917649859582        5.18771763576512        0.81253518089190
H           -0.60425754977946        2.79216188601740        2.73606258276558
