72
 energy: 20.721128291339 xtb: 6.6.1 (8d0f1dd)
N           -1.44277829417906        3.16820844425509        2.39784930932781
C           -1.47841618659543        2.33630664336932        1.45690243688849
C           -2.63093823783067        2.19689268444450        0.49980888017947
C           -3.16366095528066        0.77497867187953        0.56475956870519
C           -3.95693595406460        0.25520994727393       -0.45809158411598
C           -4.45909550699863       -1.02616146129112       -0.39319787997107
O           -6.06655395702036       -1.73129607327985       -3.78154283246165
C           -7.06822011698153       -1.61722856718307       -4.44806112142056
C           -4.20976588684979       -1.82779943289975        0.72202546911962
O           -4.76854894868913       -3.06995084852413        0.69743545502886
C           -4.66191227380181       -3.88345231126452        1.83762429689735
C           -3.43655059308970       -1.31770645483661        1.75660149069680
C           -2.92122313213010       -0.03328598375782        1.66621510703159
C           -2.05424608623383        2.50900524915241       -0.90783613565534
C           -1.20669430422917        1.39245099996297       -1.54634074943668
C            0.09099307267210        1.18918377664771       -0.86981835149420
N            0.59023537726380       -0.02150030853351       -0.47781557975440
C            1.96967245999005       -0.12128855737908       -0.10211360712590
C            2.88115332980733       -0.56141823457904       -1.26945047442893
C            4.32005115282079       -0.47205640397707       -0.86157989841812
C            5.02421264077801        0.70703230353901       -1.02024184474953
C            6.34643178893462        0.80677168549813       -0.61127309311481
C            6.98406598429242       -0.27458343528724       -0.03033949400904
O            8.27499908941294       -0.29317702427768        0.40410245294595
C            9.05330802606151        0.86563819446705        0.24966860290773
C            6.27193616286873       -1.48393050354342        0.14233875073413
O            6.98133452422839       -2.49509177273981        0.71603578754654
C            6.35799803488259       -3.73989576188344        0.89931727595174
C            4.95467447245525       -1.56334906758888       -0.26872321535574
C           -0.16492424890756       -1.23453866576200       -0.63808958223399
C           -3.81801416162701        3.15808386534860        0.79471843287195
C           -4.43275232545604        2.89293368656602        2.16791028337577
C           -3.44025042400222        4.63441969817189        0.68587855819234
H           -4.19482380162759        0.85719329142862       -1.32157477421244
H           -5.04924016019433       -1.43932046480025       -1.19536831854440
H           -7.92509901141929       -2.30211867925776       -4.35725457471675
H           -7.19728907217083       -0.81519137337637       -5.19186693785278
H           -5.06942507810804       -3.38899257382037        2.72580009089469
H           -5.25260044355675       -4.77185954810902        1.61902230328448
H           -3.62483975352030       -4.17921301958708        2.03099679374331
H           -3.23046601927023       -1.90188739772289        2.64024716116095
H           -2.33407913040504        0.34535644937973        2.49059430735374
H           -2.88275475824805        2.73092695351319       -1.58178626510316
H           -1.43844523690411        3.40750602457903       -0.83342301126923
H           -1.78268223570969        0.47036907628581       -1.58577069955218
H           -1.01651736538589        1.70756272881790       -2.58299863405808
H           -0.64752101851498        1.66195720700065        1.19787983185605
H            0.75781631109513        2.02739530894734       -0.77257452803543
H            2.06340695282390       -0.83546762840095        0.72197884619852
H            2.31027915666028        0.85413944212412        0.25473167599560
H            2.69083477823066        0.09873731633229       -2.11758323840943
H            2.62555495759559       -1.58120667469548       -1.56038048181792
H            4.54815341692381        1.56173433558330       -1.47747346287535
H            6.87050163942053        1.73773037830865       -0.75836466240187
H            8.63689199550364        1.71200186069189        0.80658668939175
H            9.16237768605258        1.14346922226833       -0.80423917946304
H           10.03109872320183        0.61400990559743        0.65767883122890
H            7.11656740198937       -4.38094602503794        1.34607659649669
H            5.50128142595899       -3.66891131532795        1.57840954636746
H            6.03286474552575       -4.17538001395091       -0.05173558313847
H            4.40123325586543       -2.48168781396110       -0.14534117776175
H           -0.34655125804728       -1.47745090979553       -1.69051968385838
H           -1.12962593554018       -1.14653886752259       -0.13246538359448
H            0.38933836168255       -2.05385035654805       -0.18549699752569
H           -4.58220278317644        2.94196581265889        0.03751586869411
H           -3.70496266100874        3.10230155167782        2.94523747938789
H           -4.76161231955655        1.86037283827835        2.25687282679122
H           -5.29475386409251        3.53985652483421        2.31359507855228
H           -2.65788759838090        4.87002940140224        1.40003221952704
H           -3.10247474089492        4.89328671828321       -0.31398532451294
H           -4.31133271000189        5.24516251216928        0.91244812363216
H           -0.58869918245693        3.17684365673160        2.95230826162111
