72
 energy: 29.712889065729 xtb: 6.6.1 (8d0f1dd)
N           -1.46147828406366        3.16669275895286        2.38599295340878
C           -1.50215123599762        2.32759974590227        1.45122671653772
C           -2.65232144207216        2.18322801390133        0.48114171061580
C           -3.19609476831316        0.74680294099591        0.50995922697092
C           -3.99238183813570        0.21080408152205       -0.51435227619899
C           -4.57040609414006       -1.05523168804142       -0.48838115846674
O           -5.64023536469883       -1.74541591322753       -4.19662357963446
C           -6.83447218037083       -1.55737924950369       -4.19814932111160
C           -4.28304875690830       -1.83198913809932        0.65031611297854
O           -4.82861315045114       -3.07341879712334        0.68131647314930
C           -4.71287230276004       -3.83952928688848        1.83532834928189
C           -3.49232081057018       -1.32758415348863        1.69323367736201
C           -2.98146627240123       -0.04655726930735        1.62162321336889
C           -2.04043753582171        2.53390134982532       -0.90730784588864
C           -1.20012908003986        1.41159441604893       -1.54613865101782
C            0.08526634189348        1.19787732265695       -0.84691506057184
N            0.59340315904742       -0.02085989396126       -0.50103650751519
C            1.96357619460700       -0.12994955371636       -0.09485056708006
C            2.87422779877999       -0.56380569871624       -1.26290279912992
C            4.31322390016354       -0.47609115025478       -0.86134128180772
C            5.01688229135538        0.70384997842788       -1.01649890336271
C            6.34248272952426        0.80180640427101       -0.61308999403045
C            6.97814786016726       -0.28482169684818       -0.04098643215292
O            8.27207905307043       -0.30590449845578        0.39109156708923
C            9.04569245699457        0.85558104071935        0.23972450031384
C            6.26594505925763       -1.49571322737701        0.12432290538982
O            6.98177808421050       -2.50994586329052        0.68030993898533
C            6.36916102775519       -3.76100178554120        0.84970698958893
C            4.94563268519956       -1.57424389359784       -0.27974953510847
C           -0.17825275430729       -1.22418624768678       -0.64557384229062
C           -3.82972304842010        3.15382273612285        0.78612679135054
C           -4.42492773564460        2.89970086834347        2.17062723888695
C           -3.44982593829727        4.63085698608874        0.67479667784251
H           -4.20233033500547        0.84117163669799       -1.35854997087258
H           -5.28446866735910       -1.41126083153486       -1.37844138566331
H           -7.58539860106366       -2.36270806540464       -3.98144778660709
H           -7.27887403495987       -0.63730373131738       -4.66929684179654
H           -5.13104745002687       -3.32137355777268        2.70309262997457
H           -5.27704779607576       -4.74487046587057        1.64877322456118
H           -3.67679405552936       -4.07976311122401        2.05975952072763
H           -3.30170706067609       -1.90818919015103        2.58513375784424
H           -2.44040711462551        0.33761246450844        2.46388822073725
H           -2.84046005281066        2.79440699061235       -1.59972403253497
H           -1.41013457401319        3.41914457214228       -0.77924376071683
H           -1.78348251832615        0.49299577101173       -1.60026941643881
H           -0.97832619041537        1.74239570406130       -2.57377646101474
H           -0.67683269097751        1.63600788918255        1.21625212206752
H            0.75537913377924        2.04032607215091       -0.73896170715911
H            2.04255593061842       -0.85389672644340        0.72594028035135
H            2.30875526527868        0.83862577831750        0.28182530961258
H            2.67850893051921        0.10187908613878       -2.10542774782057
H            2.61274436732457       -1.58146653519518       -1.55485416443845
H            4.53178817160412        1.56064097368664       -1.46128284269887
H            6.86335931930961        1.73403225580250       -0.75725712055340
H            8.62933939452574        1.69779372567139        0.80384285024177
H            9.15294688658035        1.14111278786886       -0.81288039632275
H           10.02482026684697        0.60285989051940        0.64234816872724
H            7.13623088093469       -4.40108188050501        1.28281441913459
H            5.51874727101187       -3.70262875347255        1.53697529159954
H            6.03795852544724       -4.19098671664078       -0.10223214013404
H            4.39013646052959       -2.49295749601887       -0.16312409213190
H           -0.36101652434183       -1.48005456981098       -1.69100193671525
H           -1.14033141996801       -1.12618049236778       -0.13910996883940
H            0.36198329446212       -2.04648225041068       -0.19201560385702
H           -4.60528417468394        2.94035285858214        0.03919859085442
H           -3.69070079044476        3.13692811138680        2.93313696949445
H           -4.73065834962199        1.86243302024772        2.28028277199798
H           -5.29491212632262        3.53277363462685        2.31402411373191
H           -2.66596648165810        4.87081242984239        1.38895065967833
H           -3.11277361209828        4.89661592185198       -0.32319595844175
H           -4.31547875167706        5.24506027154907        0.90506105333281
H           -0.59587958779034        3.19104093753176        2.91650036330945
