72
 energy: 46.207728414452 xtb: 6.6.1 (8d0f1dd)
N           -1.53663384366444        2.97935720437283        2.30808389293777
C           -1.57155905412740        2.21019199342898        1.30657822404938
C           -2.73778193930734        2.10829318493982        0.34364342937375
C           -3.31011896256619        0.69156104343595        0.33239444838197
C           -4.08994836405169        0.16427839463956       -0.74166081144648
C           -4.55140165315685       -1.16068333494170       -0.89712835483269
O           -4.99819473057143       -1.72045691526061       -2.36615653288176
C           -6.29007886174917       -1.31878888280983       -3.01389137539234
C           -4.35253850439664       -1.90347829868794        0.34966686794105
O           -4.87938000458259       -3.15547002410238        0.47504007935430
C           -4.66865158899568       -3.96826942429498        1.60403205417961
C           -3.59747051343197       -1.39590181343642        1.41642253504595
C           -3.01928310476870       -0.14380436148320        1.39592770632580
C           -2.14458849958777        2.40826133387032       -1.05644640611148
C           -1.22700299513117        1.31069461699504       -1.62174278597577
C            0.06170552563032        1.19023392756335       -0.88900968602517
N            0.59836143836838       -0.02712753692508       -0.48477506182887
C            1.98694148943023       -0.09773918964523       -0.12613716282334
C            2.90499207794845       -0.56221980898200       -1.28089026881405
C            4.34304188145349       -0.46542795566959       -0.86304267941708
C            5.04848355577301        0.71020312393645       -1.03075563401953
C            6.36520133644510        0.81701593906479       -0.60553542599625
C            6.99911142664401       -0.24782112854943        0.00990283408396
O            8.28828353983520       -0.25943898084552        0.45720341261896
C            9.06373648224240        0.89614982599408        0.27806298431647
C            6.28216458346666       -1.44710854379098        0.20791296146843
O            6.97786821743057       -2.44500910136872        0.82576651404665
C            6.33792057400240       -3.67613294867104        1.03093007505027
C            4.97108251225468       -1.53268503675290       -0.22108240386317
C           -0.13122601684888       -1.25983007635464       -0.62842610254628
C           -3.87402577829382        3.11276212719503        0.67310121513346
C           -4.48191551029672        2.83338032217039        2.04505594228562
C           -3.42963405145970        4.57402355536088        0.60853891819945
H           -4.33698935643591        0.88007253930933       -1.50953567958892
H           -6.67619056262418       -0.83785017972392       -2.18743835648098
H           -7.05443667088811       -2.10661888924420       -3.30417976461840
H           -6.17180445190375       -0.70120572121667       -3.91407939514091
H           -5.00024475107580       -3.48416053776158        2.54304236751555
H           -5.26419905727358       -4.86882686495521        1.41608038542723
H           -3.61511364603705       -4.26531396998201        1.67619106622738
H           -3.33681457673355       -2.02671136623784        2.26594779660621
H           -2.35307935291870        0.17080363321789        2.19372622725103
H           -2.97442910504345        2.56719610055348       -1.74910613865866
H           -1.56139180749811        3.32586900686491       -1.01137076055270
H           -1.76096295715986        0.36621340819503       -1.61301575999849
H           -1.06614229715751        1.56810929711638       -2.68252529756251
H           -0.71049011748506        1.62501747391619        0.94030531489537
H            0.77570570057612        2.00344034901196       -0.87478228825323
H            2.13209944740755       -0.77234083727304        0.72611708274986
H            2.30717377283493        0.89906111849693        0.18725182826977
H            2.71455063365985        0.08698035966530       -2.13699533687983
H            2.65281809480315       -1.58675279314556       -1.55871025823981
H            4.57816074061025        1.55635915820252       -1.50801903509706
H            6.89153330564618        1.74723773201096       -0.75795148526824
H            8.64130060431133        1.75684914200399        0.80934943190793
H            9.17656375057920        1.14659167219102       -0.78224699939089
H           10.04186647328246        0.66259799687222        0.69626197929266
H            7.07897007905092       -4.31520644777389        1.50878242393084
H            5.46744757610241       -3.58001878559165        1.68981787131562
H            6.02604034378875       -4.12910960023621        0.08387749542021
H            4.40909621792848       -2.44182047947160       -0.07714238925196
H           -0.30984784578464       -1.52522890478330       -1.67811403117611
H           -1.09766069345761       -1.18966335215555       -0.12781823015175
H            0.44552224430190       -2.06692427188533       -0.15746082077807
H           -4.65183660530908        2.95815921185606       -0.08169588048590
H           -3.73459976156078        3.00945097460802        2.81437741331779
H           -4.83120609920967        1.80801743634825        2.12339761250405
H           -5.32584005978205        3.49778492439220        2.21324975877242
H           -2.64230933593569        4.76063029840003        1.33407916867794
H           -3.07954382670421        4.84918435990191       -0.38072699199421
H           -4.27299141282350        5.21887489487363        0.85684032223952
H           -0.64373355451584        2.97810690712289        2.80028577355764
