72
 energy: 110.023227370368 xtb: 6.6.1 (8d0f1dd)
N           -1.50441735672826        3.14227728709244        2.31590031980626
C           -1.56349906135288        2.27412760770713        1.41264566938229
C           -2.69618681866100        2.16070023978199        0.42700809083761
C           -3.23312293589472        0.75108676707191        0.41892401788820
C           -3.98205857285842        0.21719029780052       -0.65525891718786
C           -4.53736222527516       -1.02121413920882       -0.56485770582368
O           -5.10081712228530       -1.52425531619812       -3.68145402710847
C           -6.41520489490752       -1.61552375437622       -3.48844301426722
C           -4.30705060269097       -1.84771749763272        0.54022502846264
O           -4.81399568577470       -3.10936289338216        0.57421688910941
C           -4.69155330689901       -3.86840590484844        1.74317944903704
C           -3.57608658803507       -1.32659091900336        1.58366540228845
C           -3.06836607673086       -0.05218562287462        1.51756688331768
C           -2.08790902151108        2.48856877595741       -0.95828698332118
C           -1.19550528621392        1.39385521897340       -1.55935489538514
C            0.10068667615219        1.19202765183105       -0.86738383266549
N            0.57385090580261        0.00570373618257       -0.45709886222326
C            1.96353435215655       -0.12316522469695       -0.08603292710871
C            2.86337360669988       -0.56484485289736       -1.25914349403393
C            4.31184246601385       -0.47651043084583       -0.85577905499437
C            5.01349098573736        0.70316561575448       -1.01345825198812
C            6.33789593516964        0.80342049900013       -0.60877480435168
C            6.98731730061185       -0.27196807600225       -0.02797244169703
O            8.27708079594136       -0.29043651243473        0.39982087825312
C            9.05182484166459        0.87215939445679        0.24810506864650
C            6.27706359622108       -1.47963969566485        0.15388120334491
O            6.98404416202364       -2.48357976250311        0.73938167822398
C            6.35390228906787       -3.72201590550130        0.93936095950035
C            4.95969763892526       -1.55918306105178       -0.25935527280654
C           -0.18072516711832       -1.20894627781508       -0.63600585827492
C           -3.86446972338394        3.13757481753962        0.74221950994139
C           -4.46383415981093        2.87401719651902        2.12115446357708
C           -3.45681885775907        4.60788887632799        0.65001051859922
H           -4.12708412645473        0.81414123769334       -1.54956297771559
H           -6.30731070313757       -1.52347688829389       -2.32472272959034
H           -6.87349500002203       -2.55817269771102       -3.84887310040314
H           -6.86882823237038       -0.84070434597850       -4.14307287424824
H           -5.10862489925745       -3.30796797917313        2.60762114379838
H           -5.25602848874379       -4.79178545631965        1.56309160200509
H           -3.64064518017947       -4.15083051693912        1.90856345200057
H           -3.44736167027915       -1.91620392614312        2.45355358501193
H           -2.49765594849499        0.28681322990536        2.35130189424699
H           -2.90539983793444        2.69284243403181       -1.65307353636017
H           -1.48664395975483        3.38761949204547       -0.87142482987045
H           -1.76757376109650        0.47469169230682       -1.60352352375695
H           -1.01378340387833        1.70288076405424       -2.59912916160880
H           -0.73203568981139        1.58595440078989        1.17253364016509
H            0.75550543525775        2.03492757507935       -0.68555378486356
H            2.07680754164903       -0.83864946599819        0.72702575081566
H            2.31924063256666        0.84826775645740        0.26368321663833
H            2.67377362892715        0.09992696263500       -2.10418684362838
H            2.61057287655804       -1.58305453429191       -1.55830317441941
H            4.54034312427122        1.56049073182441       -1.46815200829636
H            6.86032284229324        1.73615480171047       -0.75189788411286
H            8.63292869328708        1.71668777546914        0.80738834792491
H            9.15668959540760        1.15136181958106       -0.80542099213999
H           10.03146104926836        0.62686872566370        0.65653619647163
H            7.10461095606956       -4.36420728221897        1.39727131766333
H            5.49297396855709       -3.63920386434622        1.61207168213170
H            6.03254867855000       -4.16117158067740       -0.01038836504606
H            4.40983828121866       -2.47673710863195       -0.12844629208263
H           -0.35256404919501       -1.43155743401207       -1.69169841881844
H           -1.14876610099126       -1.14066505032237       -0.13861314092769
H            0.37621922116213       -2.03713488772380       -0.18491793064955
H           -4.64508702298127        2.94941822392483       -0.00204587619843
H           -3.72411793139889        3.08543649213573        2.88902564869533
H           -4.79171791474645        1.84516043772264        2.22997763948806
H           -5.31977484239465        3.52628380724288        2.27749951229992
H           -2.67256384871864        4.82852370792552        1.36889365668321
H           -3.11756840834080        4.87832895989958       -0.34394808687296
H           -4.32120371310191        5.22954962519271        0.89007539678036
H           -0.65266536428827        3.13264106820968        2.86760316973629
