72
 energy: 51.116729756211 xtb: 6.6.1 (8d0f1dd)
N           -1.45986000166884        3.19048465153765        2.33094366651030
C           -1.51838546790273        2.29941795869898        1.44408940744225
C           -2.66561862086251        2.17786680155272        0.46511447635092
C           -3.22054011590929        0.75668819095919        0.47853645445375
C           -4.00271413742360        0.22581919650728       -0.56849437917616
C           -4.54216711076387       -1.06455014256786       -0.55012976737837
O           -5.52625964219861       -1.62400460712616       -4.25445834654407
C           -6.71489889392740       -1.53446975756877       -4.04921056222856
C           -4.27684886853842       -1.83393901835027        0.61532793516646
O           -4.82664634726294       -3.07348462039046        0.65284915693271
C           -4.71399716270682       -3.82360063267782        1.81088287179584
C           -3.51599631496972       -1.32300579780668        1.66240544729906
C           -3.01935535582021       -0.04023730571766        1.58765017614782
C           -2.05280759451177        2.52760976135543       -0.91466059301970
C           -1.18510034885971        1.42510647549314       -1.54863670610886
C            0.09148747066627        1.19970128849277       -0.83687231852510
N            0.58855829747881       -0.01984905790258       -0.49056937279808
C            1.96039146137607       -0.13260824192083       -0.08302929669979
C            2.86732176493417       -0.56195423351226       -1.25508650493692
C            4.30873735638525       -0.47821449101289       -0.85541791617184
C            5.00832529656100        0.70337448308351       -1.01002276311395
C            6.33520024361871        0.80132152069164       -0.61482706705331
C            6.97580830366189       -0.28488663747253       -0.04896865383925
O            8.26751483527948       -0.30603820536336        0.37871262888063
C            9.04005740712880        0.85567649212224        0.23316967560847
C            6.26949650489346       -1.49655723424561        0.12053993132361
O            6.98748254643502       -2.50797034894367        0.68343605563146
C            6.36526644767488       -3.75071418333271        0.87836260091799
C            4.95009875208737       -1.57465467243879       -0.28058287699706
C           -0.18709852162027       -1.22347545630015       -0.64792166572429
C           -3.84305395201124        3.14958651046580        0.78173759900756
C           -4.43873340931949        2.89826174254843        2.16631290950606
C           -3.46264914627556        4.62647414639140        0.66917049841167
H           -4.19610763486025        0.85099159639959       -1.43132892659141
H           -5.42646272982694       -1.44414959244204       -1.57637358395696
H           -7.38461997127299       -2.39548090201449       -3.90569409020115
H           -7.30234935468899       -0.68027022146804       -4.41845681641415
H           -5.15946863667949       -3.28762416569481        2.65488865561198
H           -5.26061621814775       -4.75309672208251        1.64603790975509
H           -3.66615130791022       -4.06879623500069        2.03262645442615
H           -3.34646689814141       -1.91551761099649        2.54011693355788
H           -2.49213488745332        0.34235824021646        2.43343706095741
H           -2.85594226635214        2.78159724889964       -1.60890572761079
H           -1.43362814894105        3.41463875127796       -0.78868996747716
H           -1.76322865845269        0.50680740338388       -1.62429804104758
H           -0.96665674008606        1.77334285701288       -2.57096778938554
H           -0.71187157765824        1.56659020494482        1.25198175314154
H            0.76013441666969        2.02530735043266       -0.68392501358877
H            2.05350920668299       -0.86763882736026        0.72458577159288
H            2.31322171243829        0.82716932099891        0.30645662576232
H            2.66675231424813        0.10534546238010       -2.09483538452755
H            2.60066128007215       -1.57793307698172       -1.54929508708948
H            4.51833438474140        1.55925162585810       -1.44912073989528
H            6.85269018407456        1.73595660725325       -0.75562438736056
H            8.62382097249119        1.69444892970870        0.80179941055912
H            9.14469163584098        1.14694859541872       -0.81703242059892
H           10.02172452055171        0.60570293951207        0.63269792603745
H            7.12514712470460       -4.39268387496367        1.32200350043645
H            5.51124494211118       -3.67949116298287        1.56122663895608
H            6.03663674477156       -4.18384222201598       -0.07203592219964
H            4.40175324455163       -2.49556566042582       -0.16087550754208
H           -0.36898306731820       -1.46075081699433       -1.70218295402336
H           -1.15456704580231       -1.11643951836758       -0.14797428755189
H            0.34487610744410       -2.05004726073507       -0.19171649470615
H           -4.62555917563818        2.93851709743192        0.04367599109428
H           -3.70445615009912        3.13692986812584        2.93080789129325
H           -4.74577467955766        1.86455037676247        2.29222818686001
H           -5.30411128477424        3.53950062799223        2.31594813728521
H           -2.68359112477125        4.87312245658316        1.38388749225196
H           -3.12097862018977        4.89240018704235       -0.32753907786948
H           -4.33054412226341        5.24088077194378        0.90021003215798
H           -0.61503151860153        3.19064195306629        2.89007082065885
