72
 energy: -2.597800354709 xtb: 6.6.1 (8d0f1dd)
N           -1.50176725332818        2.82272936006336        2.25324327320912
C           -1.55539633530100        2.16013941139646        1.18622110138774
C           -2.74632581132342        2.06989093077848        0.26925569172787
C           -3.32859297482471        0.66094262556796        0.33594553052535
C           -4.25884146472897        0.22458578828665       -0.61996731780922
C           -4.78472333487317       -1.06307430200080       -0.64190249922029
O           -5.59945172615661       -1.62054977574705       -1.62421540460974
C           -6.36790957348165       -0.78782876526802       -2.47821063449830
C           -4.38728752019541       -1.92649950248596        0.41283380137449
O           -4.96579331745464       -3.16379498803425        0.42721136877008
C           -4.66296676025574       -4.06649772337024        1.45814289205529
C           -3.46436287059799       -1.50517673372086        1.36141499078288
C           -2.91914599801747       -0.23062465826848        1.31048077511513
C           -2.18337705645772        2.32396123499108       -1.15413730177910
C           -1.25297340819737        1.20965133852702       -1.66628314492175
C            0.01910810781240        1.14392884711100       -0.89481892391702
N            0.63039026338400       -0.04825109036250       -0.54868525504471
C            2.00212424518409       -0.05131590051098       -0.15337709291579
C            2.93416992682697       -0.54846161437963       -1.28144099772712
C            4.35946265611899       -0.44181216824423       -0.84650764498475
C            5.07292748918257        0.72426640426976       -1.04350188352383
C            6.38345616455465        0.83569824312104       -0.60309123231071
C            6.99891310376887       -0.21896609139925        0.04667626525167
O            8.28123635043215       -0.22419905248230        0.51281480020533
C            9.06866166164734        0.91971005253446        0.30981785846804
C            6.27435881246909       -1.41234564442991        0.26246489529094
O            6.96061717117255       -2.39907123025586        0.90604624547912
C            6.32175250280933       -3.62991418865931        1.12259987501998
C            4.96843820852187       -1.50319877766879       -0.17763244814980
C           -0.07178792363448       -1.29776128881879       -0.62402246294785
C           -3.87126866493890        3.08661916438008        0.60528764084958
C           -4.49109388261155        2.79007750852583        1.96887950808537
C           -3.40243409614088        4.53975236554753        0.56419057410676
H           -4.57962299635491        0.93143844704781       -1.36745752225193
H           -6.71067418569951        0.01563859900440       -1.86080889219501
H           -7.20494120802094       -1.37417689006356       -2.91497230974257
H           -5.77721756890374       -0.36056907615435       -3.29459723450029
H           -4.91050365959131       -3.65646803077845        2.44619392910641
H           -5.28245382849858       -4.94296466913547        1.26297171917694
H           -3.60876719080009       -4.36497605741981        1.43654631285288
H           -3.13096461847608       -2.16883857577566        2.14798487737111
H           -2.19319530599848        0.06301145807398        2.05612343621318
H           -3.01552649298513        2.42927216130401       -1.85170685585071
H           -1.62896736097769        3.26355123494362       -1.15471368237973
H           -1.78851233448112        0.26267569030666       -1.62526023004051
H           -1.03275357057955        1.41990434071838       -2.72434788638398
H           -0.68950955760800        1.64281517515276        0.71083741228390
H            0.68570503614130        1.99296596802839       -0.97066717210203
H            2.12681946891830       -0.68981150234720        0.72879383903838
H            2.29779407744380        0.96292488720258        0.12395561722109
H            2.75400375886192        0.07112023720708       -2.16142575264869
H            2.67629443640067       -1.58016189640834       -1.52524146957653
H            4.61123198888013        1.55973491093525       -1.54879835622013
H            6.91743530580996        1.75597940930183       -0.77996283582489
H            8.64838159457089        1.79691246546463        0.81439477724097
H            9.19470095237768        1.14126117813818       -0.75551375887900
H           10.03878841702025        0.68471435571011        0.74494137511387
H            7.06122357789705       -4.25698910085830        1.61840877064709
H            5.44501494039890       -3.52515733997748        1.77155009844273
H            6.02126111546468       -4.10165971476132        0.18063531965661
H            4.40315936512081       -2.40939165071185       -0.02364627045920
H           -0.25050062062529       -1.60614060821935       -1.66172982999803
H           -1.03619427358719       -1.22756252237144       -0.11409461728641
H            0.53062396581006       -2.06201013204413       -0.13132914849879
H           -4.64933603054046        2.96030337898174       -0.15706537275311
H           -3.74714248896600        2.92978177697509        2.74768139460945
H           -4.86148328862211        1.76915903891590        2.01508669901763
H           -5.32324028120017        3.46690109268412        2.14756917304400
H           -2.61148413994379        4.70214378031214        1.29082530894422
H           -3.04718195734660        4.82236108624223       -0.42274183205529
H           -4.23503827610934        5.19277159752270        0.81810765940844
H           -0.61173554449854        2.81593003389135        2.75068006091201
