72
 energy: 16.402315637768 xtb: 6.6.1 (8d0f1dd)
N           -1.51749769621575        2.90044953618695        2.28013054438922
C           -1.56468767844760        2.17738058448216        1.24901971290736
C           -2.74420514283193        2.08731037249958        0.30648196829294
C           -3.33120373175928        0.67668915643382        0.33343974167959
C           -4.18031505721577        0.18829519120339       -0.68765691325986
C           -4.67219439808357       -1.12536348680862       -0.79794756102485
O           -5.26370345440110       -1.73093373901265       -1.99930326183771
C           -6.32043812502090       -1.06023424237953       -2.75744931232511
C           -4.35377537508327       -1.92620040302188        0.35275239754471
O           -4.92651923168018       -3.16169683575649        0.45023683783398
C           -4.66493228782345       -4.01812692218697        1.53157029079562
C           -3.52910883881417       -1.45336376286286        1.38573527565447
C           -2.97003890907707       -0.18850070652179        1.35260170239481
C           -2.16364628354534        2.36414417395566       -1.10522771801770
C           -1.23623229040500        1.26190766775395       -1.65024637128823
C            0.04221485159318        1.16858940998858       -0.88515166822509
N            0.61914094472709       -0.04696086604982       -0.51403724328534
C            1.99924885978316       -0.07984504801000       -0.14191769437571
C            2.92332130614640       -0.55890178947702       -1.28440524128098
C            4.35495142860223       -0.45502175652960       -0.85847989919862
C            5.06365781156336        0.71552938766257       -1.03866022845301
C            6.37723030068689        0.82502252641917       -0.60482894035507
C            7.00113893486231       -0.23430178322720        0.02904965354844
O            8.28852026341892       -0.24347146318809        0.48604079239798
C            9.06732052877757        0.90777076434498        0.29420370882064
C            6.27978238396989       -1.43019613833929        0.23546336817852
O            6.97095342185438       -2.42296441097177        0.86684582461854
C            6.33001700445872       -3.65330009321900        1.07684993061329
C            4.97161063356860       -1.51830590023466       -0.19986731791227
C           -0.10149644889886       -1.28313666554268       -0.62629528457924
C           -3.87337027012524        3.09991631704587        0.63897774774426
C           -4.48687980935470        2.81208727992455        2.00687782007114
C           -3.41638563292056        4.55675721059852        0.58680147431954
H           -4.46201651568490        0.90687691216853       -1.44110133731406
H           -6.56721375189064       -0.35306869016182       -2.03828688935754
H           -7.17956342149839       -1.72258961263239       -3.09028206058132
H           -5.95877481409219       -0.52469023245735       -3.64533823553491
H           -4.95356583379199       -3.57082033732359        2.49733159284396
H           -5.27328038176863       -4.90650059404913        1.34031351360830
H           -3.61054324885269       -4.31727017338166        1.55646464491234
H           -3.23083689224097       -2.09672641141080        2.21009138592714
H           -2.27231359667548        0.11858053810048        2.12424922689854
H           -2.99560018946016        2.49829569846841       -1.80004920250898
H           -1.59483186591739        3.29313367559699       -1.08198716062088
H           -1.76808995980512        0.31376969359155       -1.62150136974683
H           -1.05611478503502        1.49416143380396       -2.71460463940885
H           -0.69921732921997        1.63149691394013        0.82297512332010
H            0.75973020602779        1.97979813040878       -0.96218147612602
H            2.13454195152015       -0.73179943364560        0.72915159670735
H            2.29896862630729        0.92822561814108        0.15264290106462
H            2.73487778773583        0.07756735229104       -2.15003438136060
H            2.66785534666857       -1.58656696985967       -1.54478448914744
H            4.59575488656163        1.55627271381671       -1.52883088620029
H            6.90608029825576        1.75167290687960       -0.76750108455436
H            8.64428225234186        1.77665059719841        0.81144723346081
H            9.18564368599290        1.14392062921523       -0.76889603347809
H           10.04207456291802        0.67511407077417        0.72030026514131
H            7.06968550258139       -4.28715941798808        1.56372663050856
H            5.45599176502556       -3.55206377684740        1.73022401607870
H            6.02311983228540       -4.11496912940512        0.13206741755732
H            4.40678964325010       -2.42520874090813       -0.05054533388820
H           -0.28475327396857       -1.57137702833760       -1.66974939136622
H           -1.06668693818989       -1.20872407715699       -0.12093029366494
H            0.48691686831136       -2.06978504186802       -0.14266204297140
H           -4.65240694842788        2.96085957458988       -0.11933398680464
H           -3.73909652749684        2.96996131095592        2.77958136806518
H           -4.84604544104035        1.78844593849211        2.06912467749101
H           -5.32536580045606        3.48242255517049        2.18036737021537
H           -2.62760606099349        4.73033903084850        1.31369369041505
H           -3.06271586844278        4.83487586727453       -0.40093713015714
H           -4.25407287212598        5.20669573947947        0.83685906356234
H           -0.62824175403363        2.89473129777590        2.78025561589325
