72
 energy: 34.902358930017 xtb: 6.6.1 (8d0f1dd)
N           -1.53017728070133        2.95297909680968        2.29825857537861
C           -1.57002525868031        2.19620581098514        1.28858537051432
C           -2.74033529983292        2.10041865877970        0.33061223028728
C           -3.31750931549269        0.68462420685297        0.32847834335940
C           -4.12120443960216        0.16932910446385       -0.72710881745442
C           -4.59346005940986       -1.15464000568312       -0.87612075125507
O           -5.06647675962059       -1.73645705893063       -2.24276748385422
C           -6.29596581535136       -1.23766448795913       -2.93664569794749
C           -4.35459071640432       -1.91132832671907        0.34717361174285
O           -4.89414555152658       -3.15953783982202        0.46524237154344
C           -4.66718950237279       -3.98548608863192        1.58038849521062
C           -3.57657951991325       -1.41565696998233        1.40531925997345
C           -3.00313774806951       -0.15956120618906        1.38062694707031
C           -2.15141639509906        2.39368101032788       -1.07303127335071
C           -1.22997395362519        1.29600994857527       -1.63287672216855
C            0.05214591910235        1.18709348232231       -0.88274466659875
N            0.60481771146233       -0.03309296857080       -0.49703463113996
C            1.99099069086102       -0.09226012278229       -0.13234794758683
C            2.91129337574952       -0.56133485647341       -1.28316733609926
C            4.34786412279811       -0.46244148432112       -0.86312334065069
C            5.05389355943449        0.71188465388550       -1.03355557236804
C            6.36949238078539        0.81965588969299       -0.60528357238793
C            7.00002317744864       -0.24341721958218        0.01632987256452
O            8.28896280123065       -0.25437256220335        0.46668609340844
C            9.06508430311193        0.90001367530197        0.28334949625260
C            6.28161480600084       -1.44154382595799        0.21698612599019
O            6.97590462467948       -2.43789149789387        0.83957457098610
C            6.33528729034011       -3.66860210127413        1.04621403918501
C            4.97154695127001       -1.52795052384029       -0.21437772695993
C           -0.12139096578859       -1.26732104094712       -0.62832024843753
C           -3.87400929356507        3.10804616209504        0.66157432782764
C           -4.48354254831096        2.82627847477794        2.03230340464131
C           -3.42524169379487        4.56795364561605        0.60130237374203
H           -4.37780867306398        0.89000800331114       -1.48740151635283
H           -6.62286219044890       -0.65951903225182       -2.15341520411726
H           -7.10252789737633       -1.98358220193105       -3.22587120983692
H           -6.09968667832809       -0.63981619930337       -3.83434055363490
H           -4.98376563187531       -3.51395064722931        2.52944744106338
H           -5.26730105234890       -4.88204556671823        1.39170658806381
H           -3.61311346375472       -4.28316567559286        1.63676408819359
H           -3.30159383453964       -2.04955233362527        2.24788579912225
H           -2.32584013446035        0.15346129488812        2.16992954983269
H           -2.98216227931158        2.54491991644284       -1.76633150965234
H           -1.57275188460476        3.31498639402999       -1.03475112222916
H           -1.76053280675305        0.34862126699057       -1.61700514125027
H           -1.06451082988825        1.54506477157186       -2.69627667979581
H           -0.70685259669745        1.62574281273993        0.90080239783107
H            0.77535199214473        1.99195628773380       -0.90465917926858
H            2.13329038276793       -0.75854448479440        0.72729516361923
H            2.30360129074879        0.90837300570735        0.17522214661431
H            2.72109663863198        0.08382845159170       -2.14220749416588
H            2.65936750969500       -1.58728680985087       -1.55599795784051
H            4.58411836390627        1.55594286335031       -1.51507967103557
H            6.89662073645742        1.74897980071199       -0.76032980130280
H            8.64221286358859        1.76346762205151        0.80977123325646
H            9.17961400298813        1.14561835064198       -0.77796166592980
H           10.04239351418971        0.66749512490801        0.70391722453131
H            7.07581957552837       -4.30604733206092        1.52710136522013
H            5.46349932622507       -3.57060786770968        1.70311937247739
H            6.02486280856205       -4.12435452826179        0.09987717622431
H            4.40831297976176       -2.43616022965539       -0.06847041443823
H           -0.30195202786043       -1.54118281463685       -1.67558695669806
H           -1.08749808381055       -1.19635697901850       -0.12594195638018
H            0.45909849742709       -2.06813983341449       -0.15251090767942
H           -4.65241461893525        2.95910521988538       -0.09435621648332
H           -3.73555989756251        2.99634426779982        2.80243343462366
H           -4.83607603774009        1.80142126292247        2.10537902313311
H           -5.32559674697331        3.49278306836115        2.20231010568193
H           -2.63753860974023        4.74999368162140        1.32750384480554
H           -3.07380633774886        4.84419984740740       -0.38736083669017
H           -4.26657498053113        5.21492922655783        0.85001617417633
H           -0.63873188319845        2.95024466992290        2.79370745641695
