72
 energy: 86.469712605667 xtb: 6.6.1 (8d0f1dd)
N           -1.47014974638174        3.17092703393234        2.30585710493053
C           -1.53779763368727        2.27287045991300        1.43261527585127
C           -2.67961685842976        2.16755946650083        0.44576001506423
C           -3.22834985265395        0.75489325985751        0.44637055826768
C           -3.98661048507693        0.22202605592685       -0.61785285812724
C           -4.55094135983363       -1.04439382600917       -0.60385498394926
O           -5.35005191392165       -1.54465424422992       -3.91167329238779
C           -6.56922982720995       -1.58727924860142       -3.83615687127985
C           -4.30342785236396       -1.83872256388937        0.55886209502405
O           -4.82767989273210       -3.09233548803101        0.60461008900791
C           -4.70804886449257       -3.83801652304722        1.77993709793385
C           -3.55472899266139       -1.32561843033067        1.60879537915859
C           -3.05246486803855       -0.04530544644599        1.54889714561385
C           -2.07077516692640        2.51004186069591       -0.93504033039317
C           -1.18344300371217        1.42533761778872       -1.55771466807332
C            0.10187442872774        1.20464848633117       -0.86396478036872
N            0.57617942643629       -0.00521842744244       -0.46393813350068
C            1.95526810015362       -0.12521497290103       -0.07983416579155
C            2.85817520983415       -0.56270016047108       -1.25356576397412
C            4.30328325912073       -0.47814698055295       -0.85215322198182
C            5.00505875878132        0.70230160219911       -1.00736218013850
C            6.33249359864189        0.80175844858921       -0.61072888244933
C            6.98026173940349       -0.27886838220434       -0.03970132757078
O            8.27355053606535       -0.30023902456371        0.38230785407992
C            9.04599668588559        0.86372113733936        0.23832967646966
C            6.27237319305801       -1.48814510106168        0.13657515100922
O            6.98623345267729       -2.49625789287502        0.71085003218826
C            6.35992907408272       -3.73648547050503        0.90866313675077
C            4.95348257786719       -1.56717051688886       -0.26972828015325
C           -0.18424416726643       -1.21374512371377       -0.64165330856526
C           -3.85464068159449        3.14177640807063        0.76419213795070
C           -4.45359832468699        2.88630691101108        2.14547386340834
C           -3.46293712699288        4.61602417521040        0.66200735575811
H           -4.14015963344795        0.84389786581706       -1.48259340821450
H           -5.65457820681113       -1.47469796986652       -1.82853502304109
H           -7.14656564730535       -2.52190241065372       -3.89160462640774
H           -7.11617082926545       -0.75301921160679       -4.27297247836904
H           -5.16863888105618       -3.27124585892729        2.60331199816239
H           -5.25495266603642       -4.77173393844723        1.60875547691146
H           -3.65775551395718       -4.09992810420701        1.97272662993291
H           -3.39771011845359       -1.90783370871955        2.48887511694533
H           -2.52820975455186        0.32258822698929        2.39732930048908
H           -2.88138866465859        2.73846952964685       -1.63020961730784
H           -1.46067958408554        3.40169888791222       -0.82689377873090
H           -1.75287967258181        0.50565849313316       -1.62167131030746
H           -0.99402421662838        1.74865096496029       -2.58984930950142
H           -0.73500056606656        1.55281668452069        1.23850767274551
H            0.74719934747534        2.03012746914998       -0.62802944743126
H            2.05507189164502       -0.85249646498502        0.72560496327693
H            2.31477391283763        0.83645083850726        0.28668582865032
H            2.66012714648870        0.10471343855097       -2.09382846402073
H            2.59893433098873       -1.57967625492890       -1.55212947484786
H            4.52688944893482        1.55995134672382       -1.45653745434234
H            6.85135392920714        1.73562260122405       -0.75370375732289
H            8.62836974020467        1.70403649017114        0.80493861139877
H            9.14891085329919        1.15131326007937       -0.81345024805030
H           10.02726308732686        0.61623436192876        0.64244690845315
H            7.11548458733448       -4.37837676952768        1.35928363973179
H            5.50245753796930       -3.65957263425455        1.58656048091167
H            6.03501327509631       -4.17258455159779       -0.04149615485482
H            4.40786110978470       -2.48832785952720       -0.14481253451316
H           -0.35739012895655       -1.43404532613449       -1.69835210725109
H           -1.15708227250295       -1.12756961347989       -0.14696521356110
H            0.35677908728946       -2.04563968879528       -0.18735956157923
H           -4.63946196041640        2.94437940795825        0.02473388542506
H           -3.71697236376656        3.11124643679637        2.91197454427358
H           -4.77388629645050        1.85598186180982        2.26548249545724
H           -5.31395663974315        3.53484015021025        2.29726638351749
H           -2.68161353029904        4.85088146897874        1.37873381683346
H           -3.12861177186871        4.88783164277376       -0.33329743692344
H           -4.33529625213718        5.22508934135582        0.89752391031424
H           -0.64277875448590        3.17415140359468        2.88886245812898
