25
 energy: -42.159339705546 gnorm: 0.005365243551 xtb: 6.6.1 (8d0f1dd)
C            3.30188547845077        1.10113383409448        0.01571933670261
N            2.31437036413538        0.05585068206588        0.00212826264914
C            2.54052207900029       -1.25367863495518       -0.03819846876931
N            1.36895590467129       -1.93087192995315       -0.03004294874149
C            0.35373764131788       -1.01531483024524        0.01995798244132
C            0.94397761512952        0.25636014734700        0.03956218142919
C            0.20728727449385        1.46319442341818        0.01615375935920
O            0.60716560288125        2.60358453453287        0.05589038492792
N           -1.23803119190961        1.20256286834947       -0.08241596606881
C           -2.02373974414855        2.27552191929926       -0.19728290118764
C           -1.74366738989938       -0.05267263768342        0.01349694842621
O           -3.07270385451598       -0.21660941505172        0.12491688391347
N           -0.97662424274594       -1.18731180236413        0.04000399378925
C           -1.58068765161241       -2.50566094262748        0.07313494717785
H            3.80463179690304        1.13681150217829        0.98369802473355
H            4.04510969050688        0.93019200161219       -0.76198086132151
H            2.80243932535528        2.05441047569499       -0.15261430832449
H            3.50772258161132       -1.71281341382749       -0.07123101655363
H           -1.54455566990383        3.22644431572558       -0.13865568594466
H           -3.04994081380868        2.20329254216269       -0.50078273044797
H           -3.46310744400986        0.62383291823002        0.42396243436289
H           -1.23534714551286       -3.05066631486680        0.95208945529750
H           -1.32523787706924       -3.05920134812490       -0.83091927015014
H           -2.66022762044912       -2.39541658921268        0.12493551817588
H            1.27649680522874       -2.93473576419869       -0.05035433797633
