72
 energy: -99.403584250915 gnorm: 0.007632628625 xtb: 6.6.1 (8d0f1dd)
N           -2.06843492564770        2.79135118995973        2.35819804974939
C           -2.03249082490756        1.91069001636768        1.47128271435372
C           -3.07226356394190        1.75970909373956        0.39163693385583
C           -3.72046147758675        0.38935195902480        0.52737271878246
C           -4.54147543984906       -0.10019561209863       -0.48975821054083
C           -5.17812377952605       -1.32568542852121       -0.38183825022208
O           -6.00102348952475       -1.85578210138200       -1.31231278946081
C           -6.36981409140822       -1.07324288553580       -2.42303024866611
C           -4.97574515839417       -2.11972718123755        0.77892476373973
O           -5.60757427523122       -3.31029002493597        0.78813362767767
C           -5.46548998209042       -4.15606373390877        1.90727761634958
C           -4.17298062859438       -1.61979338074159        1.79250355826394
C           -3.56237709152053       -0.37974210991758        1.67093920950248
C           -2.32409212132560        1.87920433273410       -0.96338511272068
C           -1.42877258038943        0.68946836951938       -1.32597384854954
C           -0.06338449422682        0.76278771103827       -0.75978041234658
N            0.81146732807265       -0.23491158713959       -0.85978296930874
C            2.18073166828850       -0.08465991710602       -0.43911356761301
C            3.15178661365884        0.05189803008021       -1.62935492370581
C            4.56077738116366        0.18623940829940       -1.12192225461049
C            5.23662513117891        1.39255176150258       -1.17869240343103
C            6.52353777152887        1.50913854626759       -0.67308404689306
C            7.15331614041200        0.42363123582884       -0.08196767578625
O            8.38497738577861        0.42707647473941        0.46084709162871
C            9.14096414130569        1.61609025600298        0.44624027115940
C            6.46762920609379       -0.82133376309672       -0.02158544072168
O            7.14754883769085       -1.82486847299746        0.57097449478750
C            6.53842944660203       -3.08723645820947        0.69527841923538
C            5.19066444301698       -0.91788815773102       -0.54825766777205
C            0.45124650006539       -1.46350393480920       -1.52925386762505
C           -4.19817682457799        2.83489886079482        0.44544079083215
C           -5.02924212175703        2.72229367798719        1.72223521784666
C           -3.68255263125796        4.26439153697241        0.29855473594988
H           -4.69638380352531        0.49551647580724       -1.37361276722350
H           -6.84872719083269       -0.13919350964563       -2.11135072750629
H           -7.08289207923994       -1.67515834577395       -2.98189815838816
H           -5.50998979927673       -0.84879815093357       -3.06243242212308
H           -5.87542087794664       -3.69701827078754        2.81294879434873
H           -6.03456955610426       -5.05330913776476        1.66937641294106
H           -4.41800748946771       -4.42576112682303        2.07590692175222
H           -4.02657118231608       -2.18501106150247        2.69838680214572
H           -2.97715567305016       -0.01185690457456        2.49892638339561
H           -3.07109624413615        1.99600070862799       -1.74892227728039
H           -1.72195096672952        2.78888162994930       -0.95145837490133
H           -1.91986445022664       -0.24366917821314       -1.04207868624398
H           -1.32918522134276        0.65518809476564       -2.41977463566429
H           -1.22160360482058        1.16598660137595        1.37837262976932
H            0.28802879910670        1.68648645478554       -0.32974380504700
H            2.46766421479680       -0.95662826826761        0.15668854021620
H            2.26742036805345        0.80181571264584        0.19187210527974
H            2.87881323369889        0.92974867423666       -2.21606794023884
H            3.07221420770900       -0.82845611465094       -2.26951450678223
H            4.76898200664036        2.25506302894809       -1.62858681039216
H            7.02881879734851        2.45838303479599       -0.74277794949755
H            8.63659152505888        2.41835320757843        0.99366812823193
H            9.34996770421686        1.94566287654318       -0.57591325598940
H           10.07697350041637        1.37188616109582        0.94522865494347
H            7.26046636264701       -3.71082202088050        1.21937017451360
H            5.61629766938712       -3.03098299352310        1.28385797766439
H            6.32338606336390       -3.52843922463679       -0.28321097534650
H            4.67260275664113       -1.86400571469466       -0.52746384896521
H            0.23319594186863       -1.27679334159679       -2.58577094429022
H           -0.43394829138146       -1.90787516040634       -1.06997205497152
H            1.27128895911012       -2.17668609959116       -1.45994913519068
H           -4.86034579959021        2.62589805317371       -0.40396394129365
H           -4.41978938963247        2.97146197172194        2.58609596319433
H           -5.42490730308237        1.71733542899769        1.84656413786610
H           -5.86572005691761        3.41613193199046        1.67529612612285
H           -3.01141559717671        4.50469330844222        1.11707136128308
H           -3.16872862151831        4.41973286952330       -0.64697767060959
H           -4.52470957410020        4.95197840794991        0.33293462551222
H           -1.30844023374575        2.81255180230009        3.03339346761823
