  25
        -41.98095827
 C          3.7724407731        0.6515244455       -0.5517637954
 N          4.0479095028       -0.7109010812       -0.2807194725
 C          3.2667786762       -1.6540578003       -0.0930081751
 N          1.8470986954       -1.6357963028       -0.0726714873
 C          1.1080814894       -0.5819552083        0.0975715341
 C          0.4090933892        0.3866585671        0.3475462313
 C         -0.3805647466        1.5233496401        0.4309744825
 O         -0.1535457518        2.6468784844        0.7331288458
 N         -1.8119722064        1.1962892838       -0.0044942965
 C         -2.7158129555        2.3129872839       -0.2037781804
 C         -2.1506942402       -0.0074435318       -0.2227681492
 O         -3.1053406601       -0.7381383561       -0.7205510082
 N         -1.7648950912       -1.2959074940       -0.2693778020
 C         -1.8334774040       -2.1893903347        0.8571918458
 H          3.7829299925        1.2137205921        0.3833363345
 H          4.5862678435        1.0246765464       -1.1742226847
 H          2.8148830955        0.8168495039       -1.0548770579
 H          3.6663509217       -2.6475684883        0.0608578767
 H         -2.1354624520        3.1616841113       -0.5667145012
 H         -3.4948734433        2.0467392105       -0.9154551068
 H         -3.1651836671        2.5921620752        0.7515277547
 H         -0.9391205603       -2.0326467746        1.4612484939
 H         -1.8530154521       -3.2069824362        0.4697328788
 H         -2.7173088070       -2.0171266905        1.4769964214
 H          1.3839588312       -2.5177784936       -0.2634715600
