25
 energy: -42.186520028806 gnorm: 0.004450626067 xtb: 6.6.1 (8d0f1dd)
C            3.27289421679240        1.18795202553762       -0.03312859966135
N            2.20564262353212        0.27761304974229        0.07866781664212
C            3.47797272115598       -0.29138505428276       -0.10609829031718
N            1.14678618506619       -2.20340667110354       -0.05040815156578
C            0.34027308410746       -1.21421563144639       -0.00897895994500
C            0.90458654795876        0.11590345295464        0.03749779195556
C            0.06114661246387        1.30569508752541        0.07364292860154
O            0.52164904731261        2.43193563601876        0.09751502150096
N           -1.29942144966779        1.05756271309546        0.07213571383813
C           -2.20961328358352        2.18589335623541        0.10368281543522
C           -1.88676365354359       -0.19651198036507        0.03724316196183
O           -3.08759940411706       -0.31819226408336        0.04083114332717
N           -1.04238685709499       -1.29731412390708       -0.00457985333149
C           -1.66663055751009       -2.60658069090354       -0.04452215131257
H            3.56285109973940        1.71710267363465        0.86977315589674
H            3.31004988199619        1.80596040608535       -0.92455858782888
H            3.67293178531955       -0.78224829107293       -1.04879742062464
H            3.90336484977026       -0.80567521277323        0.74918026619835
H           -1.62011860160290        3.10067226857635        0.14669005860487
H           -2.83885338661423        2.18302733312764       -0.78882997246454
H           -2.86275523019203        2.11321088337595        0.97554616659586
H           -1.37570177928955       -3.19442012492721        0.82866463088676
H           -1.38392082156845       -3.13632214618106       -0.95664720683294
H           -2.74752273962490       -2.46711317083108       -0.03481126348023
H            0.80157062329463       -3.15090498243308       -0.07853859617985
