  25
        -42.00871934
 C          2.9389990976        1.7266275313       -0.4123604977
 N          2.2717237636        0.5106070756       -0.6301492060
 C          2.1285320501       -2.8470463850        1.1381570059
 N          0.9803296276       -2.3211010705        0.9386337965
 C          0.5820088708       -1.1549578605        0.1974952976
 C          1.4356465679       -0.2064584082       -0.1647704967
 C         -0.7970582148        2.1904954414       -0.2907942651
 O         -0.5476937914        3.0127037157       -1.0598735856
 N         -0.9951606508        1.1654534456        0.4103545281
 C         -1.1625195281        1.1908762930        1.8691629788
 C         -1.5961087729       -0.0965549351       -0.2424010773
 O         -2.6997476110       -0.0250325150       -0.6772947112
 N         -0.7790121688       -1.1508477282       -0.2076805569
 C         -1.3120740250       -2.3905879390       -0.7778743274
 H          2.7312794732        2.1735954887        0.5626667231
 H          4.0085998182        1.5377754785       -0.5156760141
 H          2.6517807427        2.4144399768       -1.2103497871
 H          2.9976156475       -2.3647942727        0.6989707568
 H         -0.7903904379        2.1293729621        2.2720282978
 H         -2.2220053823        1.0864112809        2.1132319550
 H         -0.6044002031        0.3616444771        2.3029828439
 H         -1.8334183433       -2.9766687696       -0.0197598388
 H         -0.5007193459       -2.9734970762       -1.2072552387
 H         -2.0274228604       -2.1395257056       -1.5599927110
 H          0.1766291118       -2.7987320313        1.3456784408
