72
 energy: -99.566917446426 xtb: 6.6.1 (8d0f1dd)
N           -2.26994890470697        3.25990883885920        2.60790850189451
C           -2.14694633351516        2.20578806862184        1.95553142570511
C           -2.93861842022843        1.95340747531834        0.70468270352628
C           -3.55335989334713        0.60824014093391        0.66087037497248
C           -4.22375436490918        0.17314453426615       -0.46780962806289
C           -4.82821271352793       -1.06508503923908       -0.50115392375575
O           -5.53248540509587       -1.59517860749251       -1.51895449005430
C           -5.60123063468261       -0.75077956594947       -2.61836620811723
C           -4.79005798430131       -1.91009315055857        0.59892846632975
O           -5.40519307461306       -3.11342709794131        0.42054705563438
C           -5.27489505240418       -3.99613592606308        1.48374493282411
C           -4.15431631476363       -1.45738548348044        1.72375307685659
C           -3.53256574162615       -0.21954795412108        1.75249086783187
C           -1.68550429307713        1.97186057585176       -0.01822557867818
C           -1.11207284305856        1.10942233676942       -1.04022992446085
C            0.34438946587468        1.00431201268028       -0.91940816791278
N            0.85497602541807       -0.13204098072186       -0.33335423950117
C            2.25459567966458       -0.17753040752256       -0.24798955853374
C            3.11170885569924       -0.61345730537523       -1.46315466805301
C            4.54240731802360       -0.49354080403030       -1.00207240294899
C            5.26204253260854        0.67929700667467       -1.17554324809643
C            6.58954477948004        0.82511734644096       -0.77156683687718
C            7.24538559331726       -0.22415938689970       -0.14525911481484
O            8.55331553345130       -0.19146260951541        0.30008132513217
C            9.33004931818079        0.95895050661744        0.02936524386667
C            6.51671153524717       -1.42728806848693        0.05188579666558
O            7.21217502170169       -2.42855036448435        0.67088531578378
C            6.48368679275227       -3.60718992949377        0.91036111668028
C            5.18331286449518       -1.54357806887044       -0.34891316061808
C            0.14346126710129       -1.38384866691655       -0.23215645147572
C           -3.94267905329604        3.02707797367166        0.39458165618491
C           -4.98911573156525        2.93956419805101        1.47615556543782
C           -3.38128342214410        4.43923765944068        0.32788101504597
H           -4.16535262043820        0.82094747743443       -1.31016844320093
H           -6.09504016331278        0.17155200407319       -2.36622642526048
H           -6.21798737279091       -1.27863740756822       -3.32772022050939
H           -4.60949632916299       -0.48815215822358       -2.98067771745375
H           -5.76315765648756       -3.57257484523850        2.35930720846283
H           -5.76410104508020       -4.91913095212765        1.20322832779507
H           -4.22913181006053       -4.18417143281312        1.70469016323504
H           -4.16896161103423       -2.07099513343201        2.59190503918423
H           -3.05495463357250        0.11980319100515        2.64650304509907
H           -1.36723160596877        2.91262778932176        0.16009930639630
H           -1.10029732580630        1.51796086906708        0.73460023400235
H           -1.57707101444697        0.13895976548327       -0.84664164976534
H           -1.29405625886703        1.68155868796086       -1.89403808253058
H           -1.23691305223117        1.51400344569464        1.97744353106496
H            0.97500448050207        1.68203350511861       -1.49845637957156
H            2.45892585753059       -0.87500694798996        0.55743954772060
H            2.54669850457489        0.83016147457320        0.04652793171991
H            2.91692773743444        0.05713163064905       -2.30515597155005
H            2.88125058387788       -1.64291001104498       -1.76260869438878
H            4.79191848126403        1.50718936027727       -1.67674743582445
H            7.10811661386415        1.76610009697125       -0.92565795979342
H            8.95562833093075        1.84100549797203        0.54741725837692
H            9.35398632217628        1.19610006554466       -1.04282401723180
H           10.33493095841717        0.76007118903508        0.40755304748338
H            7.14419886375309       -4.28155307868311        1.44117253895391
H            5.59476573333059       -3.43033381157388        1.53032744984459
H            6.15646620867103       -4.06501251430299       -0.02883711824657
H            4.60977422420896       -2.45194072442608       -0.19596618417791
H           -0.12891759462566       -1.74522797733892       -1.25438469203669
H           -0.71180743321044       -1.25801585214514        0.46276068642044
H            0.77562812502861       -2.11060207740868        0.32613895959575
H           -4.35521962819045        2.74054166160919       -0.58318703512236
H           -4.54687940910152        3.14110157666289        2.44190248067559
H           -5.45576185596630        1.96356239737837        1.49648907069625
H           -5.71636176820350        3.68573762311849        1.24789908539374
H           -2.82879433156247        4.69060101257474        1.22315113618783
H           -2.69792299660843        4.51460797811405       -0.49113104434423
H           -4.16952672539742        5.14991674591580        0.17930704616482
H           -1.57083753561604        3.34514077290608        3.31730790875361
