25
 energy: -42.434122963434 xtb: 6.6.1 (8d0f1dd)
C            3.39249688670430        1.09430891393349        0.06201100410982
N            2.40006362842886        0.06331439283666        0.00335659895538
C            2.64414651534587       -1.27169900147939        0.03240068004390
N            1.46154571779348       -1.93816116116549        0.02670227069918
C            0.45479061197151       -1.03133236198152       -0.00190776647297
C            1.01484142043494        0.24526505349444        0.00130928742739
C            0.24413909235627        1.42909099446406       -0.03331303524003
O            0.65603325171988        2.57865226357188       -0.16651003042851
N           -1.17897935040310        1.13686994700309        0.06348416106948
C           -2.08481247993959        2.17360598808861        0.04450752042159
C           -1.74124968871330       -0.13153370667240       -0.04851093792591
O           -2.93232612952159       -0.32357661429540       -0.14178571981957
N           -0.87638430939445       -1.23759807447658       -0.04944114984499
C           -1.43105750559612       -2.57731703841125       -0.06865428540136
H            3.87172858650572        1.11494110016822        1.04476748175629
H            4.15513444927332        0.91949921377900       -0.69679350190733
H            2.91450440886594        2.05430662317948       -0.11936342427721
H            3.60465376803707       -1.73382197169401        0.07997554510153
H           -1.67300704148926        3.16244757186455        0.06130459327336
H           -3.05655668993745        1.95186489218329       -0.35942496576893
H           -4.27009764447812        2.11944161737915        0.52163054124314
H           -1.13413133262743       -3.12431579226220        0.82931694204949
H           -1.09651009743859       -3.11616438544192       -0.95770215667065
H           -2.51659539407426       -2.48444223763384       -0.08932321281507
H            1.36162501743703       -2.93982088331704        0.02589871892687
