25
 energy: 0.000000000000 xtb: 6.6.1 (8d0f1dd)
C            3.23720163006194        1.16630919979326        0.08434469647475
N            2.29877817382611        0.07527477071623        0.03981603040599
C            2.58028210190900       -1.21425402444508        0.03006176031096
N            1.43813958087363       -1.93419271955128        0.00098261760884
C            0.39035688448383       -1.05887472636071       -0.00790371836672
C            0.93510056364412        0.21347819449412        0.01709077491437
C            0.09450143893243        1.40504303904423       -0.00410947031874
O            0.49712751527797        2.54126714362870       -0.00342325688240
N           -1.25076640035757        1.06271879480407       -0.03085478223738
C           -2.21907211982101        2.15522099834493       -0.05001256985998
C           -1.81739487048744       -0.20012725993278       -0.04692818574614
O           -2.99983886758376       -0.37846417018721       -0.07008878229737
N           -0.92618586207120       -1.30210215599479       -0.03682761578324
C           -1.46982264913417       -2.64643102187190       -0.06029820460571
H            3.71247264356769        1.21471455160235        1.06488849150277
H            4.00791497605742        1.03430808813993       -0.67357694370751
H            2.69910007168542        2.09770118228144       -0.09130154882931
H            3.56654120610678       -1.63682992603973        0.04233140067262
H           -1.67107961066214        3.09322851271934       -0.02552706933167
H           -2.82428953597071        2.09428624779827       -0.95318082946668
H           -2.87644029173232        2.07745725625962        0.81450067533302
H           -1.17061996399332       -3.19584890659852        0.83242232437030
H           -1.14560257411436       -3.17511610292205       -0.95688275822323
H           -2.55549792440841       -2.55659984320617       -0.07459039797972
H            1.38130855184625       -2.94313852034425       -0.01389874181052
25
 energy: -0.692342208798 xtb: 6.6.1 (8d0f1dd)
C            3.27378309653268        1.15757373473482        0.08000058148370
N            2.32420750969774        0.08794034788681        0.03177917598593
C            2.60829246574092       -1.24069753112259        0.03170118784410
N            1.43394875287031       -1.94201725458295        0.00365066875896
C            0.40763079233009       -1.05161013364351       -0.01127201249307
C            0.94550393383975        0.22519749667918        0.00770914704130
C            0.11576830319172        1.40334864324011       -0.01230225351049
O            0.52426933936022        2.56470590227009       -0.02349931786144
N           -1.25635802408736        1.06706076511759       -0.01381549161422
C           -2.25170568106170        2.14867627610657       -0.01371869888996
C           -1.81086394439502       -0.18746933939137       -0.04824313455516
O           -3.00656176047348       -0.37031498547092       -0.07176317449534
N           -0.92309332649187       -1.28967352701309       -0.04115619360590
C           -1.46344759527844       -2.63070510988176       -0.06151945732204
H            3.75166974043011        1.19731844579908        1.06239927050496
H            4.04228148489641        1.01168240515055       -0.68078824523454
H            2.74044629308790        2.08875840807489       -0.09750648263059
H            3.58401642277152       -1.67158492022997        0.05030583264082
H           -1.68905786637898        3.08841193651155       -0.00475967559105
H           -2.85807372687764        2.08440205774346       -0.89020211073519
H           -3.09910302595988        2.07659627188358        0.73507492159745
H           -1.16117682681038       -3.17977432494693        0.83230062790089
H           -1.13546104510775       -3.16372642912740       -0.95599167739293
H           -2.54852499109322       -2.53932462358834       -0.07624920705382
H            1.36382434720258       -2.94574591002745       -0.00510038462507
25
 energy: 14.287359007971 xtb: 6.6.1 (8d0f1dd)
C            3.32747553769024        1.13319480835020        0.07195046830960
N            2.35125694046335        0.09447188881615        0.01760435313491
C            2.63060352934717       -1.26551045787002        0.03566200526800
N            1.42780451383022       -1.94151499533898        0.00940946593833
C            0.42645747390494       -1.03839533495706       -0.01494884162564
C            0.95723201733420        0.24274571396056       -0.00625036209869
C            0.13695186216501        1.40581092931589       -0.02093301423231
O            0.54665201447459        2.57786775571626       -0.06150840980202
N           -1.27242343321147        1.08417338353018        0.02437725325454
C           -2.30764687701673        2.14418491731932        0.03052377606115
C           -1.79776264531368       -0.16730268032181       -0.04030511155931
O           -2.99782364702246       -0.36103737259041       -0.07703358525616
N           -0.91600021208440       -1.26721975927801       -0.04684466401899
C           -1.45097771220416       -2.60622178116937       -0.06469035503455
H            3.81168787973806        1.16322830165945        1.05433654650884
H            4.09626240442171        0.97160188047032       -0.68885973001684
H            2.81443980016821        2.07444337244726       -0.10649985349118
H            3.59603370825756       -1.70763643414862        0.06412689933889
H           -1.73634865829308        3.08356250703152        0.04578879316986
H           -2.90239343453964        2.06836605354005       -0.83880992180417
H           -3.37288696686305        2.05650680136716        0.63514092010337
H           -1.14739921281653       -3.15400572260874        0.83117754969864
H           -1.11976357175073       -3.14487198208855       -0.95609881751669
H           -2.53562494362593       -2.51444052088704       -0.08040893221869
H            1.34640830088287       -2.94297267009371        0.01012746403637
25
 energy: 26.059074370739 xtb: 6.6.1 (8d0f1dd)
C            3.37652422429687        1.10438584124815        0.06420514780094
N            2.36859214837549        0.09349123643558        0.00688937424795
C            2.63701493561276       -1.27580071033439        0.04072534920246
N            1.42605729993400       -1.93567592895707        0.01779157223088
C            0.43722706441979       -1.02503024234664       -0.01644328973770
C            0.96688344066539        0.25846863196838       -0.01667570898171
C            0.14350384710046        1.42009663461166       -0.02981538974781
O            0.55223247675841        2.58986546710093       -0.09411236839393
N           -1.29083522297641        1.10461470607352        0.05344191741708
C           -2.37211950348690        2.13932306107211        0.06043885253096
C           -1.79089939171866       -0.15301670410840       -0.03716883817008
O           -2.99000991082560       -0.36009505336267       -0.08714128140702
N           -0.90678778292210       -1.24691129253631       -0.05222098074335
C           -1.43791224533704       -2.58550182324884       -0.06849939847791
H            3.86590192641392        1.12088824031666        1.04566362894961
H            4.14579030959852        0.92261373619467       -0.69397351278535
H            2.89587735224768        2.06313941836884       -0.11561483942258
H            3.59820912799449       -1.72891866046586        0.07944186488494
H           -1.81423492220609        3.08563675218589        0.09070838858500
H           -2.93613079843014        2.05050977800586       -0.82644601934444
H           -3.54067399707216        2.03206155244053        0.59319087212129
H           -1.13522042520369       -3.12894041737251        0.83046160118496
H           -1.10239998193868       -3.12522455695743       -0.95754846135728
H           -2.52248682963805       -2.49334119138976       -0.08781975734451
H            1.33811152627400       -2.93760987277088        0.02755517290485
25
 energy: 29.937534098377 xtb: 6.6.1 (8d0f1dd)
C            3.39643533207208        1.08959070886016        0.06053733600960
N            2.37336437392203        0.09214798681671        0.00329060507633
C            2.63527974201501       -1.27394035999955        0.04265814554760
N            1.42741131111824       -1.93063167310539        0.02298708001952
C            0.43958630947299       -1.01898231233457       -0.01481955182282
C            0.97032516389926        0.26484064425868       -0.01839285882142
C            0.14494306947721        1.42894716454564       -0.03229035478952
O            0.55193122082220        2.59273279211320       -0.10812443510368
N           -1.29938004272413        1.11262442058800        0.06649949571376
C           -2.39963185736452        2.13857774805098        0.07052869753897
C           -1.79007610630607       -0.14923482752704       -0.03713377131242
O           -2.98691227758976       -0.36316899661300       -0.09690110051438
N           -0.90225263992179       -1.23881587607266       -0.05403667851128
C           -1.43144446028798       -2.57861803929616       -0.07051378460804
H            3.88699419371885        1.09762335720762        1.04143800282547
H            4.16344438610045        0.89598009422685       -0.69729838751569
H            2.93485009895447        2.05731948073351       -0.11982806198180
H            3.59604001195820       -1.73042015776618        0.08556313886968
H           -1.85266325403317        3.08945151594380        0.10536016389783
H           -2.94860039879616        2.04371555481216       -0.82209593335262
H           -3.59681911366651        2.02694172122265        0.58545022079710
H           -1.13008699988930       -3.11938785399169        0.83010438562609
H           -1.09273960888289       -3.11738165610341       -0.95839729498697
H           -2.51616291244480       -2.48781248667146       -0.09288331433487
H            1.33837912631237       -2.93307034772684        0.03533215188087
25
 energy: 29.887350775880 xtb: 6.6.1 (8d0f1dd)
C            3.39803205316935        1.08703767329651        0.06010624559074
N            2.37319467077614        0.09161642423714        0.00296007618762
C            2.63322802305910       -1.27079024438942        0.04250704763941
N            1.42845873364152       -1.92900973042974        0.02420591807701
C            0.43870821662821       -1.01830112667877       -0.01291736999347
C            0.97049698462146        0.26534175055480       -0.01669865830005
C            0.14608392456151        1.43110065577548       -0.03147703058600
O            0.55170850601785        2.59224884345016       -0.11299230743046
N           -1.30071805177412        1.11265138012613        0.07045088826227
C           -2.40220297065815        2.13892790516504        0.07065053275581
C           -1.79118951963654       -0.14938935328163       -0.03693954061972
O           -2.98678317243260       -0.36413727785361       -0.10070335195998
N           -0.90192198219027       -1.23793915194611       -0.05358139004631
C           -1.43062831985913       -2.57866427927506       -0.07097921465054
H            3.88810953556778        1.09350839957642        1.04088663010543
H            4.16358459012321        0.89176347107174       -0.69809325810808
H            2.94026713059579        2.05570368135862       -0.12002183642745
H            3.59459595997360       -1.72726283249753        0.08597475392166
H           -1.85650111146044        3.08968656520980        0.10615041590021
H           -2.94894961702727        2.04187509531992       -0.82218002061332
H           -3.59906596116892        2.02902398050586        0.58776435300071
H           -1.12962117278365       -3.11908343450837        0.82972464087263
H           -1.09087917473176       -3.11648318024036       -0.95879514002054
H           -2.51539900885469       -2.48877956519033       -0.09432793731736
H            1.33960640177829       -2.93161704718467        0.03535944990705
25
 energy: 29.535392146573 xtb: 6.6.1 (8d0f1dd)
C            3.39769121462951        1.08652670626776        0.06022615064009
N            2.37299787974383        0.09127918263146        0.00254435844723
C            2.63177072698161       -1.26853341439113        0.04219223025801
N            1.42911773687572       -1.92833327108198        0.02488479849079
C            0.43773215272739       -1.01837292144881       -0.01130106064061
C            0.97031169528379        0.26534174302992       -0.01511759914174
C            0.14794253573200        1.43225979322986       -0.03105753893340
O            0.55167043451246        2.59221297399554       -0.11751857568235
N           -1.30128604667890        1.11167599660114        0.07351862643516
C           -2.40177421956544        2.13919821454949        0.07014586486988
C           -1.79232721485181       -0.14960412081000       -0.03724467889881
O           -2.98708462968572       -0.36451025428538       -0.10364230511455
N           -0.90221551000424       -1.23788637280089       -0.05313361626436
C           -1.43069283414320       -2.57922720930508       -0.07123861926809
H            3.88718582370922        1.09261823405891        1.04111420277236
H            4.16280471117847        0.89108743643979       -0.69792362257665
H            2.94114493798506        2.05530884714965       -0.11985087135048
H            3.59357760445116       -1.72515357623520        0.08631093568286
H           -1.85597911731049        3.08952226036667        0.10542591556179
H           -2.94891755975853        2.03955144405985       -0.82188370857163
H           -3.59573601469806        2.03081149979626        0.59106104820114
H           -1.12975399087733       -3.11962985544956        0.82936611944468
H           -1.09044768614086       -3.11637207062750       -0.95916872206439
H           -2.51544485578317       -2.48972014978010       -0.09506024920775
H            1.33992689362380       -2.93102251378867        0.03438481305811
25
 energy: 29.447595848113 xtb: 6.6.1 (8d0f1dd)
C            3.39743395359606        1.08679286487393        0.06035263218560
N            2.37323542268859        0.09114789014508        0.00204041285023
C            2.63163564640555       -1.26831044109795        0.04187439192111
N            1.42925138855250       -1.92837181435228        0.02506248560243
C            0.43755464126903       -1.01853137970042       -0.01080331604443
C            0.97023255632712        0.26539174125280       -0.01455830289313
C            0.14921624751786        1.43245176819925       -0.03089395502156
O            0.55158332790134        2.59254775300789       -0.11876714268613
N           -1.30156208611091        1.11118722885554        0.07490666333906
C           -2.40126081359454        2.13923401013858        0.07001188885934
C           -1.79263271914491       -0.14948318106284       -0.03753585937803
O           -2.98724254096136       -0.36460627539912       -0.10486684545048
N           -0.90234328212126       -1.23796720913781       -0.05300673572911
C           -1.43085623330575       -2.57935113624905       -0.07127284763962
H            3.88668795557895        1.09307942091027        1.04139803557958
H            4.16284859600789        0.89169583947229       -0.69759857231822
H            2.94050147724425        2.05542577481103       -0.11983320576065
H            3.59337220491377       -1.72528102560753        0.08649375862985
H           -1.85518912575274        3.08941782501326        0.10456189237004
H           -2.94915848705445        2.03817624377933       -0.82149093299136
H           -3.59443706030549        2.03142605932879        0.59222448982661
H           -1.12984669274720       -3.11984599538064        0.82924948739498
H           -1.09071749136825       -3.11643426548347       -0.95930003457474
H           -2.51558508816355       -2.48973138414622       -0.09502860433301
H            1.33949287056379       -2.93103170999871        0.03381411240900
25
 energy: 29.470799683633 xtb: 6.6.1 (8d0f1dd)
C            3.39723348893277        1.08728721426201        0.06049187910116
N            2.37387046520787        0.09086439767572        0.00097485264784
C            2.63196392416019       -1.26881464930160        0.04108101451189
N            1.42934298140734       -1.92857330028227        0.02516539186153
C            0.43765503288065       -1.01875944920624       -0.01044443586391
C            0.97022438947361        0.26554349219970       -0.01402608367053
C            0.15122458840476        1.43246563534946       -0.03056537327580
O            0.55127821938547        2.59324294352482       -0.11879716382138
N           -1.30207432036873        1.11078977393469        0.07646801683004
C           -2.40070246597353        2.13922757497079        0.06990775421490
C           -1.79271383655546       -0.14904519887499       -0.03798758956646
O           -2.98728511877263       -0.36482036848175       -0.10626273722845
N           -0.90232103009698       -1.23809562384731       -0.05284148730677
C           -1.43104030499229       -2.57928773870013       -0.07116682607956
H            3.88615993832167        1.09402786352741        1.04180096287594
H            4.16336079562789        0.89293885373344       -0.69709949870574
H            2.93920243101699        2.05559000936301       -0.11990069919239
H            3.59333686940916       -1.72641803845297        0.08673096622531
H           -1.85437893028266        3.08941904847398        0.10299806296385
H           -2.94964613825167        2.03630708936287       -0.82091070509367
H           -3.59400073185016        2.03213475130954        0.59306451893867
H           -1.12991443667965       -3.12000019712089        0.82922438990689
H           -1.09134903252050       -3.11651331395909       -0.95935036139544
H           -2.51575410128945       -2.48934054053178       -0.09464315304337
H            1.33854199134164       -2.93114162675638        0.03312220031277
