  72
        -99.38997902
 N         -1.0099990568        2.9529510833        1.6703891004
 C         -1.4568374120        1.9298919099        0.9383611292
 C         -2.9878310201        1.8733104075        0.5329801683
 C         -3.5641798249        0.4966451289        0.5162507349
 C         -4.4660943185        0.1638856687       -0.4968825299
 C         -5.0401579661       -1.0961834147       -0.5606802443
 O         -5.9090885918       -1.5114677204       -1.5003648078
 C         -6.3323894002       -0.6118059589       -2.4983788967
 C         -4.7057575533       -2.0663238558        0.4272894750
 O         -5.2983865776       -3.2643635975        0.2825817128
 C         -5.0524633476       -4.2737597532        1.2347594789
 C         -3.8216373865       -1.7174278163        1.4384551857
 C         -3.2596407456       -0.4505385632        1.4834560889
 C         -1.9666322357        2.2219109611       -0.4888218769
 C         -1.5995216971        1.2806734586       -1.6131502624
 C         -0.0928632131        1.0021107980       -1.7173286019
 N          0.3931143609        0.1409041595       -0.6593110552
 C          1.7855376757        0.3006877441       -0.3270704504
 C          2.7623850630       -0.1662348341       -1.4350651525
 C          4.1816134329       -0.0999599432       -0.9639480867
 C          4.9162818887        1.0741528679       -1.0780324220
 C          6.2317414698        1.1356162826       -0.6505965159
 C          6.8470592594        0.0216188966       -0.0919990918
 O          8.1163153457       -0.0404864215        0.3410705408
 C          8.9497501143        1.0889718321        0.2137826587
 C          6.0985850636       -1.1838368105        0.0443357926
 O          6.7692309176       -2.2118904654        0.5937074594
 C          6.1298780346       -3.4575940111        0.7432951397
 C          4.7818723311       -1.2182854981       -0.3903513773
 C         -0.0649977748       -1.2280903358       -0.7253733400
 C         -3.9437449284        2.9022608662        1.1266255756
 C         -4.1023716710        2.6587858694        2.6281847491
 C         -3.5480381620        4.3512335331        0.8733401130
 H         -4.7109608088        0.9105774640       -1.2356948842
 H         -6.8341103672        0.2589105944       -2.0662267882
 H         -7.0391630969       -1.1679081366       -3.1111102549
 H         -5.4955650299       -0.2805556180       -3.1212443491
 H         -5.3707758277       -3.9660766396        2.2351003907
 H         -5.6450159628       -5.1281673304        0.9140368035
 H         -3.9947046172       -4.5537351857        1.2574391175
 H         -3.5654393417       -2.4294227737        2.2058369421
 H         -2.5857004806       -0.2058970698        2.2893133909
 H         -1.8789738712        3.2702245833       -0.7385013117
 H          0.4476718613        1.9468365141       -1.6615108190
 H         -2.1377966866        0.3379453239       -1.5120886465
 H         -1.9167154883        1.7420124575       -2.5509647949
 H         -1.0242983374        0.9355632368        1.0630830737
 H          0.0969871589        0.5475392248       -2.7035899494
 H          1.9869892865       -0.2707606927        0.5828625947
 H          1.9671880526        1.3562774312       -0.1107527015
 H          2.6320991670        0.4712417729       -2.3105086307
 H          2.5142553605       -1.1925255917       -1.7090953506
 H          4.4640322263        1.9496357186       -1.5179530046
 H          6.7786398985        2.0575125804       -0.7623968006
 H          8.5704042389        1.9342219467        0.7955901034
 H          9.0623511487        1.3863901026       -0.8329529789
 H          9.9167678950        0.7835252183        0.6088464294
 H          6.8740681087       -4.1164800193        1.1865428946
 H          5.2656392855       -3.3867518562        1.4110156663
 H          5.8150872260       -3.8645072094       -0.2224746293
 H          4.2104292370       -2.1290568430       -0.3013420759
 H          0.1428672486       -1.6968503846       -1.6961584221
 H         -1.1411456629       -1.2708790887       -0.5543518400
 H          0.4224391270       -1.8095997009        0.0548018072
 H         -4.9162012584        2.7165907832        0.6500711436
 H         -3.1535579637        2.8469378254        3.1263107611
 H         -4.4152091150        1.6367296962        2.8292858375
 H         -4.8478309798        3.3330933586        3.0402313104
 H         -2.5470889239        4.5312182536        1.2592897297
 H         -3.5803134778        4.5956597487       -0.1856734240
 H         -4.2427557491        5.0082064636        1.3903922241
 H         -0.3685765265        2.7134011449        2.4150566038
