  25
        -42.14749897
 C          3.2741043263        1.0833954495        0.0348893185
 N          2.2620917994        0.0617957321       -0.0237756996
 C          2.4548997075       -1.2102118138       -0.3394368048
 N          1.2759259955       -1.8525515095       -0.3096119337
 C          0.3026669850       -0.9549707947        0.0430000478
 C          0.9354701019        0.2540105012        0.2389764349
 C          0.3196443736        1.5682196960        0.6391325010
 O          0.6040272017        2.6090024919        0.0907021667
 N         -1.4486397097        1.0254280921       -0.1184403606
 C         -2.0970280927        1.9796234400       -0.6279722626
 C         -2.0059659989       -0.2717723084        0.0234655091
 O         -3.1775691030       -0.5061676456        0.0616634976
 N         -1.0330833919       -1.2517858743        0.1150593543
 C         -1.4546068458       -2.6402871154        0.2023498797
 H          3.6672462965        1.1720750083        1.0491731167
 H          4.0881257517        0.8359503405       -0.6427344757
 H          2.8313839062        2.0385727929       -0.2484871800
 H          3.3977514199       -1.6622959596       -0.5784687054
 H         -1.5894476712        2.9363955497       -0.6925044105
 H         -3.1091644047        1.8766662398       -1.0078248932
 H         -0.1173547447        1.5296168776        1.6530528772
 H         -0.9120087991       -3.1484721699        0.9987596840
 H         -1.3086561240       -3.1576529925       -0.7477791391
 H         -2.5183848894       -2.6487259645        0.4357441626
 H          1.1374571674       -2.8328440078       -0.5124987720
