  25
        -42.14518342
 C          4.2037904468        0.6554212125       -0.0535546065
 N          3.1063176998       -0.2682304636       -0.0385869943
 C          3.1625127484       -1.5842429627       -0.1006542102
 N          1.9365745217       -2.1176649658       -0.0557136155
 C          0.9580670453       -1.1029879887        0.0437644940
 C          1.7584308355        0.1255944864        0.0537692703
 C          1.3139349662        1.3734152889        0.1281058642
 O          0.8538825919        2.4324546269        0.1926801068
 N         -3.5847760548        1.5040836889       -0.1506255240
 C         -3.8835021735        2.8767423725       -0.1282427137
 C         -3.9151139425        0.3680289750       -0.0622714191
 O         -4.0240785391       -0.7851105101       -0.0210962711
 N         -0.2931159891       -1.1909522837        0.1072008391
 C         -1.0412486040       -2.4056102763        0.0952021182
 H          4.2415700269        1.2130257295        0.8844998638
 H          5.1374444949        0.1122669237       -0.1820516207
 H          4.0861199140        1.3665452810       -0.8729212617
 H          4.0728370961       -2.1502455192       -0.1745995552
 H         -2.9374920788        3.4197735984       -0.1438224101
 H         -4.4683161490        3.1555585503       -1.0077696143
 H         -4.4372315369        3.1462807977        0.7730891813
 H         -0.8527794851       -2.9931850524        0.9984440009
 H         -0.8127627486       -3.0217259952       -0.7793868871
 H         -2.0975703844       -2.1394690475        0.0708451785
 H          1.7326132367       -3.1044764606       -0.0914878211
