25
 energy: -42.147498966459 gnorm: 0.003809433262 xtb: 6.6.1 (8d0f1dd)
C            3.13967063404445        1.17992115288564        0.20227653710459
N            2.15149694746558        0.13956809490843        0.09067366245888
C            2.38408946994432       -1.12762931457865       -0.21743583674787
N            1.21753397652906       -1.79220749634131       -0.24830560092684
C            0.21087969237317       -0.91421854853086        0.05665670934868
C            0.80992256826370        0.30591247632469        0.28667892169312
C            0.14987142971864        1.60706366288024        0.65796061612355
O            0.44164418616898        2.65465371050071        0.12663961749115
N           -1.56742348526877        1.03321991679984       -0.18877989616993
C           -2.20738268200333        1.97650560849404       -0.72839396822925
C           -2.10641898581752       -0.27469049398401       -0.07772605629661
O           -3.27379178278237       -0.53128449909921       -0.09904185347506
N           -1.12091950812022       -1.23642157206510        0.06076835386102
C           -1.51982536630831       -2.63288925296798        0.12393073921014
H            3.47953314321873        1.27300210121156        1.23524590164004
H            3.99130712038935        0.94990522043341       -0.43399536652952
H            2.69368613800694        2.12740250575844       -0.10111147011301
H            3.34619671683398       -1.56111423381704       -0.40959760774012
H           -1.71548103889292        2.94288095090491       -0.76536183757806
H           -3.19698798244309        1.85557726596768       -1.15893526187155
H           -0.33676759474982        1.55720758034265        1.64851085057791
H           -1.00841483587998       -3.13309494905435        0.94562824878123
H           -1.31645230416484       -3.14458648708648       -0.81868241288539
H           -2.59364466574284       -2.66211039189709        0.30344694705358
H            1.10810972331873       -2.77433446638992       -0.45987831888094
