72
 energy: -99.363641544647 gnorm: 0.006942485416 xtb: 6.6.1 (8d0f1dd)
N           -1.63323997478539        2.59609186143516        2.29077318094655
C           -2.26333336260061        2.27451512091798        1.39222975746534
C           -3.11931757579607        1.94875381444362        0.27787863038954
C           -3.54127784113663        0.48872612556958        0.33531077667146
C           -4.47391511662820        0.00596012362668       -0.58500476830113
C           -4.90975525691260       -1.30749209311932       -0.54454787180191
O           -5.81814457844908       -1.85193606576288       -1.37869750296961
C           -6.48063425193091       -1.02688798206516       -2.30829111775075
C           -4.38584509710036       -2.18828002696559        0.44192986369518
O           -4.87606003261198       -3.44252454201611        0.41220802811959
C           -4.48587908934840       -4.35766630421576        1.40974787361078
C           -3.44051590815710       -1.70593692998386        1.33323032719735
C           -3.02335740539075       -0.38109423151672        1.28128241393941
C           -2.40796378927490        2.27275616160409       -1.06295823917569
C           -1.50222690851173        1.15562558772622       -1.60770040670527
C           -0.16936666460420        1.10839396418136       -0.97349721147920
N            0.47835636323172        0.01402592413220       -0.62060770840434
C            1.86747936995845        0.07301056048960       -0.22838665032730
C            2.81145924812586       -0.36526072612147       -1.36587264492495
C            4.23713438782664       -0.16148524144294       -0.93297413251155
C            4.86865331754705        1.05482899410472       -1.14137931861353
C            6.16861948669142        1.26436001289969       -0.70924407727956
C            6.86410128822575        0.25961591391839       -0.05100247958689
O            8.12278239500425        0.34825263847245        0.41263967158461
C            8.84951083452618        1.53959527743690        0.21560971380115
C            6.22272863396496       -0.99165027267728        0.17173978933571
O            6.96953541083367       -1.90711674716090        0.81721595752843
C            6.43156545777060       -3.18166810176525        1.07738587766069
C            4.92206784880790       -1.17742539500255       -0.27094499220554
C           -0.11526976092109       -1.29749930859366       -0.72230384437922
C           -4.38336803008298        2.86150029663108        0.44003510139859
C           -5.11075528867550        2.54414764425893        1.74544933784280
C           -4.03280818562456        4.34710794363271        0.38732863865718
H           -4.87147045767372        0.67097813928283       -1.33388230886596
H           -7.00663268400125       -0.20615177357097       -1.81131162270513
H           -7.20469568175552       -1.66941834790906       -2.80495660006693
H           -5.78808110839687       -0.62208594319021       -3.05350298567091
H           -4.72685224972260       -3.98687814828291        2.41034667340634
H           -5.05643950636616       -5.26321620610747        1.21319104548630
H           -3.41649041111921       -4.58402033203063        1.35122062715054
H           -3.02848188295594       -2.35149131830039        2.09173494309975
H           -2.30142181066238       -0.03189147408509        2.00386984274228
H           -3.18092023722912        2.46796021003746       -1.80679457325764
H           -1.82133174375096        3.18418470957674       -0.94319000743851
H           -2.01693379945447        0.19766487702385       -1.55113552656701
H           -1.33975888099244        1.37788588960934       -2.67130384077900
H            0.86021274417562        2.04096013176355        1.50109908493239
H            0.35151755941958        2.04531730926977       -0.84945330594085
H            2.02225761954733       -0.57039702167509        0.64145641020784
H            2.12189967705534        1.09636580952493        0.05436266558670
H            2.60239899841036        0.23874738969242       -2.25054356425615
H            2.63718621818580       -1.41326331105738       -1.61200045118663
H            4.35142759449268        1.85075745541766       -1.65530442009286
H            6.63470992492579        2.21874588332461       -0.89086111645965
H            8.37870379354845        2.38504263118404        0.72633584900797
H            8.95999116644732        1.76967622869409       -0.84815797792130
H            9.83085360803182        1.35749688674953        0.64947624984720
H            7.22098018163606       -3.73354951379156        1.58402948621096
H            5.55613978541707       -3.12084610070730        1.73187245882037
H            6.16355666112069       -3.70116063183400        0.15224391569168
H            4.43090177383353       -2.12501145354200       -0.11406360617847
H           -0.23592781572208       -1.59895611498192       -1.76544511931164
H           -1.09337748471958       -1.31089188084970       -0.23706622215117
H            0.52568607577469       -2.02066024615878       -0.22432233821661
H           -5.05660017601242        2.63679683003473       -0.39310616022814
H           -4.48915123405592        2.79534622629629        2.60180901411217
H           -5.37190871940234        1.48965243307011        1.80577962351154
H           -6.02635407629545        3.12646457392027        1.80693939534882
H           -3.29186325236783        4.59770373401821        1.14387057690204
H           -3.65142459815242        4.63983007139704       -0.58805229714347
H           -4.92662607209110        4.93405732189914        0.58455521601226
H            0.51987617390393        2.43905060171723        2.08294383553371
