  25
        -42.12999179
 C          3.1552187329        1.1008729625        0.0200682439
 N          2.2924337439        0.0864525710       -0.0034951084
 C          2.5567018541       -1.2296183883        0.2096316731
 N          1.4033973131       -1.9340039459        0.1756305288
 C          0.3761136634       -1.0592411931       -0.0728696037
 C          0.9312955427        0.1889728026       -0.2054455312
 C          0.1079519420        1.4347247729       -0.4381017959
 O          0.5496628359        2.5122392586        0.1021177372
 N         -1.2920054696        1.0485315253       -0.0120619782
 C         -2.1644405861        2.1637535769        0.2496993241
 C         -1.8407082412       -0.1958169947       -0.0069510335
 O         -3.0206782904       -0.3973706900        0.1245301964
 N         -0.9517058156       -1.3009189380       -0.1151712967
 C         -1.4999046973       -2.6387548273       -0.0996909302
 H          4.1978082557        0.9077024758        0.1864692314
 H          0.0034595741        1.5492688032       -1.5570494522
 H          2.7589245860        2.0979790634       -0.0822348930
 H          3.5312700479       -1.6425037300        0.3740734793
 H         -1.5459588562        2.9843956606        0.6168358415
 H         -2.6796124437        2.4840051118       -0.6612217289
 H         -2.9154388125        1.8774470012        0.9844027518
 H         -1.2916073273       -3.1423119205        0.8467789331
 H         -1.0972162937       -3.2207201238       -0.9291256428
 H         -2.5805394574       -2.5493000730       -0.2115888748
 H          1.3323974030       -2.9329679262        0.3061075263
