25
 energy: -42.088894670020 gnorm: 0.009427569977 xtb: 6.6.1 (8d0f1dd)
C            3.24175711076512        1.12885861590208        0.38608468387138
N            2.27030118625279        0.10024307800269        0.13350963700151
C            2.49635856147576       -1.22193394834537        0.05691507662339
N            1.33288999029992       -1.86927536430102       -0.19286049365649
C            0.34759847013399       -0.93455871268936       -0.27875621389830
C            0.92493335129065        0.31028968533349       -0.07710226377534
C            0.14051429205936        1.51536599728038       -0.10397127159098
O            0.52604162370106        2.65835252457078        0.05262679449050
N           -1.23160016263615        1.21589339264069       -0.33648551904526
C           -2.10152626524460        2.37667139532320       -0.38348694449192
C           -1.78743297971413        0.02495372923147       -0.49552539507518
O           -1.70463828207660       -3.09692711196569        1.00848258234085
N           -0.99730463296476       -1.10342632668315       -0.49599284409185
C           -1.48765129094767       -2.35169198146056       -0.72285087857950
H            3.74589365553449        0.95042470540946        1.33656569435096
H            3.98881334534994        1.15262081344841       -0.40841957391671
H            2.72803532791136        2.08902279762743        0.42291919694531
H            3.45057180124203       -1.69166113047581        0.17456055308726
H           -1.77306089073037        3.04683423689513       -1.17858374489378
H           -3.11986056628708        2.04632722498876       -0.56718731600720
H           -2.04174873245917        2.92011209425151        0.56014280790462
H           -2.09707771819168       -2.46819119221153        1.64210466723568
H           -2.53638526507417       -2.32641587848197       -1.01455805080849
H           -2.34809041687881       -3.79120322699606        0.82570476967472
H            1.19310000134058       -2.86244687565376       -0.31266433582807
