72
 energy: -3.954913747317 xtb: 6.6.1 (8d0f1dd)
N           -1.47349694727271        2.65334646409882        2.31595846138252
C           -1.51373091662277        2.13556834336322        1.17062139521713
C           -2.72835635754183        2.03468081577113        0.29329664470292
C           -3.28309511064392        0.62605693575042        0.32939948826760
C           -4.25740599842956        0.22750186310294       -0.59183703386297
C           -4.82898760084009       -1.02842499512781       -0.53569977141150
O           -5.79430240048430       -1.49993690066157       -1.37627987704527
C           -6.33871284917129       -0.62789872041683       -2.33213828502869
C           -4.41655653022191       -1.93530523981059        0.46385505997707
O           -5.03813957778740       -3.14798975857439        0.43998891649848
C           -4.73701825535606       -4.06682247512284        1.45638510961183
C           -3.44908697961400       -1.54038020813176        1.36644529107701
C           -2.89071160435315       -0.27043429732455        1.30062081260274
C           -2.19700118224988        2.29399105670332       -1.16759949954195
C           -1.25574496431449        1.19769369971201       -1.71837779407909
C            0.03691465097073        1.14953777441520       -0.98585470993687
N            0.66272330564215       -0.03500818699928       -0.62750987951553
C            2.02488007054790       -0.01876567034924       -0.21110902483645
C            2.96158252800008       -0.55384913043262       -1.30865981959685
C            4.38034026379772       -0.44273743722706       -0.85694837143281
C            5.09826637381412        0.72095769615656       -1.06043831257509
C            6.40549432112356        0.83499285610483       -0.61003846806662
C            7.01146297992090       -0.21314448891284        0.05948215557467
O            8.28741314747776       -0.21316805576184        0.53826455712696
C            9.07780239457316        0.92893037746722        0.33452046168873
C            6.28304547909820       -1.40301112533276        0.28185335037493
O            6.96147829126959       -2.38393054138430        0.94127288154361
C            6.32206264608021       -3.61347117004073        1.16346347792299
C            4.98132389923423       -1.49808803739781       -0.17136549996348
C           -0.03319014699481       -1.28748289594558       -0.65265403846984
C           -3.90627622195255        3.02912367679901        0.66979317171398
C           -4.59246602134141        2.80084782831763        2.01600330746816
C           -3.43849689547555        4.48857958291201        0.61156500247347
H           -4.58530897643432        0.91558934041497       -1.35430989001405
H           -6.77801197421705        0.26057912344405       -1.86602237220858
H           -7.12069385952471       -1.19649633528334       -2.83347127027585
H           -5.59127287346182       -0.31712655564507       -3.06932182526910
H           -4.96053681021039       -3.65903362169884        2.44780034964936
H           -5.37552600432832       -4.92775813972833        1.26595369034430
H           -3.68747040179185       -4.37751403443654        1.42241023896219
H           -3.12207355158122       -2.20573623552715        2.14807796948031
H           -2.15460659478084        0.01536084193180        2.03589879737511
H           -3.04074030672525        2.39841034010050       -1.85356085436347
H           -1.63815616401918        3.23134089056643       -1.19123524837908
H           -1.77049027712005        0.23970253681300       -1.68892314604885
H           -1.04574512350393        1.41729840455873       -2.77545255186830
H           -0.61939388939294        1.76650973714490        0.62198472392364
H            0.68548527608642        2.00358887478218       -1.05446763117788
H            2.14864320883564       -0.62312308304989        0.69382804670013
H            2.31618985200529        1.00557133625500        0.02934827727802
H            2.80049253285751        0.03427426185643       -2.21372286781529
H            2.69846759784867       -1.59077108497668       -1.52043132506724
H            4.64726263830108        1.54768366228624       -1.58847751108031
H            6.94500606899660        1.75025169682530       -0.79507548916449
H            8.65086312579762        1.81131694159918        0.82434084172301
H            9.21872168201443        1.13814987349472       -0.73119794053106
H           10.04221451200561        0.69938068856710        0.78509456974249
H            7.05624969121129       -4.23623539807294        1.67274495925356
H            5.43869417925680       -3.50268764008534        1.80203743278219
H            6.03273864764094       -4.09460888139548        0.22315007888480
H            4.41524894363244       -2.40298283388728       -0.01299826609828
H           -0.22069880334152       -1.62900184947987       -1.67729683894188
H           -0.99362263001051       -1.20882343509087       -0.13209799076315
H            0.57766996527706       -2.03189536804244       -0.14835277161888
H           -4.68733079655533        2.87710051245052       -0.08303915108647
H           -3.89371415374332        2.98519898369867        2.82299145697835
H           -4.98013788992863        1.78926083981068        2.09211033629870
H           -5.43391006383485        3.48975470248214        2.11971732816364
H           -2.61685378493592        4.63370642825611        1.30693110245175
H           -3.11098251297770        4.76939251463613       -0.38551331924617
H           -4.24466928486562        5.16305115186717        0.89908739755582
H           -0.54961278464497        2.67711177144308        2.73980473991555
