72
 energy: 53.107525824684 xtb: 6.6.1 (8d0f1dd)
N           -0.95951043602628        1.50327212160552        2.15112925038444
C           -1.09270545643903        1.96750781201870        0.95137357744526
C           -2.04528466807306        1.53666032994949        0.00130204395984
C           -2.91500435944674        0.40886546880816        0.21316600233520
C           -3.86245655305935        0.00346970039839       -0.75084485688361
C           -4.66824728095556       -1.09876249917812       -0.56760036770195
O           -5.59679463221923       -1.54707002615756       -1.47612610169787
C           -5.81454621024218       -0.80884666689661       -2.64717976015678
C           -4.59023159139562       -1.85028922532374        0.62503805418768
O           -5.43480513062777       -2.93146096554423        0.70725239191037
C           -5.39435184027906       -3.71792333059199        1.86734422082154
C           -3.68424200871365       -1.45123468918541        1.59511227628442
C           -2.87006455823147       -0.34885963734399        1.39502166581241
C           -1.92924437501375        2.13591118890582       -1.32908927682744
C           -1.05971971704130        1.23974352155963       -2.34803918957377
C            0.31378186169255        1.13088501423782       -1.93930297917459
N            0.79887643719179        0.17094205834886       -1.12819709701868
C            2.16951950014210        0.20571502453893       -0.67900352544762
C            3.14074018236250       -0.62770238153751       -1.54668336008570
C            4.54086084052995       -0.51299650526548       -1.00743893994455
C            5.28396758306796        0.63135866238017       -1.22955319464919
C            6.55837883716916        0.77027051301892       -0.69776905599386
C            7.11438825061896       -0.24131550833325        0.06420750675253
O            8.35194942612396       -0.21486004445452        0.63082905627590
C            9.14270374791424        0.93496225166223        0.46629157112431
C            6.37114483653690       -1.42336528386200        0.28591098762577
O            7.00691707425752       -2.37396940830845        1.02317621778583
C            6.36279198328009       -3.60108872784268        1.25158967555834
C            5.09789485669488       -1.53792279460426       -0.24403931434816
C            0.07396799641309       -1.06358727784544       -0.90911596792999
C           -4.63957655039673        3.05405498584128        1.65596301286694
C           -5.65842704356446        3.20086403914321        2.69046542435763
C           -3.84537953685588        4.23742697943524        1.23816042159118
H           -3.95791839480646        0.56607158802051       -1.66483618910037
H           -6.11760561018688        0.22334190889486       -2.42829252307596
H           -6.62759329354572       -1.31636338706895       -3.16575049956360
H           -4.93488279854277       -0.79794990837769       -3.30221164042556
H           -5.66239627042414       -3.14520972954433        2.76404609556382
H           -6.13475228715330       -4.50351916939585        1.71508483169502
H           -4.40873297213068       -4.17574220257243        2.01419777454925
H           -3.59721718715805       -2.01178456701962        2.51682155777384
H           -2.17840009434154       -0.04157776022331        2.16147688571248
H           -2.88793087963632        2.25381829425624       -1.83113328109002
H           -1.43201423516504        3.10305910013504       -1.29578969758356
H           -1.57169719824706        0.28414192220909       -2.39783075775841
H           -1.13252991810907        1.76633082011520       -3.30069503475819
H           -0.38727978640778        2.68726948654081        0.55819468486556
H            0.95195370634118        1.99107564898105       -2.07241641839760
H            2.20566592774277       -0.17105667275005        0.34667743530444
H            2.51106820422048        1.24227188446780       -0.66523907472638
H            3.10590928310950       -0.25740660493497       -2.57383239080737
H            2.82413247190234       -1.67138457086626       -1.54806350374653
H            4.87612043616829        1.43042705849444       -1.83010795442157
H            7.11026613118927        1.67613724814149       -0.89102270004873
H            8.65694549605913        1.82408787095414        0.88272807433582
H            9.38266385989136        1.11295363802959       -0.58789156705151
H           10.06493561281431        0.73923735530857        1.01302557188860
H            7.07034815967101       -4.19882716236038        1.82618855040337
H            5.44263464521547       -3.47599616180535        1.83170097361776
H            6.13271011350438       -4.11808351076205        0.31378055249085
H            4.52167875240085       -2.43451902138499       -0.07500549163387
H           -0.20212744027249       -1.53269615174061       -1.85953559313386
H           -0.83436155607951       -0.88502788967452       -0.32590786296186
H            0.70093648869232       -1.75617056697884       -0.35131189839188
H           -4.75476791869862        2.21695491354472        1.00221253808008
H           -5.23579691348476        3.80244655727271        3.48386895930328
H           -5.96800499824497        2.23287130349836        3.07980723537601
H           -6.54890259581547        3.71031789355035        2.27411979862707
H           -2.81896048158052        4.14488534973798        1.60368853662934
H           -3.78405858294621        4.37157741585094        0.14864266194899
H           -4.26721732511128        5.14869178523247        1.69114171305642
H           -0.13891367093955        1.87001358515089        2.63707200450194
