72
 energy: -5.529157305200 xtb: 6.6.1 (8d0f1dd)
N           -1.48570912554062        2.71815476126447        2.28102341341958
C           -1.53589444168171        2.14421209249945        1.16360786025249
C           -2.73894866844668        2.04995568789844        0.27135164381049
C           -3.29936771718330        0.63846465513069        0.32770489884452
C           -4.28007311986574        0.23737561714187       -0.58410978431585
C           -4.83843195423309       -1.02501196613989       -0.53357047045284
O           -5.80649681327066       -1.49445089829590       -1.37055289017015
C           -6.36716387374457       -0.61876301567948       -2.31417767838409
C           -4.40674914252073       -1.93883611540769        0.45281769918600
O           -5.01478731815254       -3.15766809766905        0.42521326591879
C           -4.70046556926280       -4.08334214452925        1.43255302764662
C           -3.43476633379426       -1.54166969417863        1.34989491622696
C           -2.88851184928998       -0.26500356927077        1.28783487673695
C           -2.19706971101349        2.29696456461039       -1.17362732514621
C           -1.26004143542699        1.18717143506022       -1.69046435549154
C            0.01981272986188        1.13822982024649       -0.93746631129689
N            0.64800855604374       -0.04164574798158       -0.59152973684964
C            2.01389066796457       -0.02629821813507       -0.18434700423903
C            2.94826480843031       -0.54687013763460       -1.29386787041774
C            4.36975222943781       -0.43770605990979       -0.84707985911882
C            5.08700609239142        0.72630689957874       -1.05099270397367
C            6.39619010803880        0.83878037920360       -0.60651454202531
C            7.00445484693845       -0.21099703264471        0.05814001367873
O            8.28181578982199       -0.21232906909110        0.53217625237191
C            9.07347782413170        0.92876637870607        0.32658231607787
C            6.27665062591830       -1.40175100251644        0.28083410012753
O            6.95711472567380       -2.38388396810730        0.93559445221635
C            6.31838032749272       -3.61404677110640        1.15760687864005
C            4.97329304956689       -1.49556156152659       -0.16706323896469
C           -0.04163888047713       -1.29683345524397       -0.63557893091828
C           -3.88800665918253        3.05471048874751        0.62680827314084
C           -4.54416821576649        2.78848034057731        1.97985807940574
C           -3.41618228962495        4.50990755337605        0.58038869738949
H           -4.62231025155522        0.93104707086916       -1.33485396283170
H           -6.81415384845413        0.25944303138711       -1.83627986855513
H           -7.14669785135501       -1.19167824426915       -2.81432789139310
H           -5.62909976358498       -0.29306192482989       -3.05489719295701
H           -4.92216767185189       -3.68669715218984        2.42888633323019
H           -5.33378162330361       -4.94755869193702        1.23888056792066
H           -3.64916412925335       -4.38781591927208        1.38972344040844
H           -3.09569970667045       -2.21218524527703        2.12292459278503
H           -2.14995267856658        0.01937337473077        2.02157936165708
H           -3.03276005224689        2.39087497113786       -1.86943358273903
H           -1.64455100233268        3.23864002709795       -1.19727374714325
H           -1.78721392376486        0.23551425154057       -1.65426955305140
H           -1.02835496316102        1.39645199399518       -2.74398169836740
H           -0.65378755277911        1.70841096522165        0.63725323575573
H            0.66380992886522        1.99772512915521       -0.99521632612887
H            2.13619067032939       -0.64440707129969        0.71109685457484
H            2.30788092978452        0.99485425575680        0.06903755595640
H            2.78360874583798        0.05122354661616       -2.19192473299393
H            2.68977164833063       -1.58266671151921       -1.51708559617966
H            4.63447213463746        1.55508993718773       -1.57489289898963
H            6.93502567033266        1.75388830024995       -0.79338510219246
H            8.65065941186474        1.81072517934021        0.82030843213001
H            9.20997535052380        1.14011701051747       -0.73935633810256
H           10.03909522632331        0.69580516750316        0.77268229712736
H            7.05477013366468       -4.23699877693243        1.66318511822444
H            5.43740992304264       -3.50463793203482        1.79969020871791
H            6.02550294228090       -4.09401865371134        0.21768349660238
H            4.40829885768296       -2.40142124411482       -0.00942271610899
H           -0.22031683538264       -1.62603619597639       -1.66528638176781
H           -1.00540732177777       -1.22656441683137       -0.12103516867186
H            0.56866957266802       -2.04431954651891       -0.13470912469324
H           -4.66554831667299        2.91970519734064       -0.13312830824119
H           -3.82687145116375        2.94315656713769        2.77761469001219
H           -4.92834211232953        1.77356246921858        2.03476960676330
H           -5.37837112112741        3.47428552363340        2.12476289173672
H           -2.60864173888705        4.66182908142637        1.29047176379409
H           -3.07439544945929        4.79248977180659       -0.41171258799394
H           -4.23499823238650        5.17378326492272        0.85229577562402
H           -0.57413503262946        2.72470345334575        2.73374961502380
