72
 energy: 55.251779177095 xtb: 6.6.1 (8d0f1dd)
N           -1.01419475895611        1.60496451356689        2.17848099779788
C           -1.11507105230465        2.01379201284704        0.96013230531825
C           -2.10201172426203        1.59219733378054        0.03302655583341
C           -2.94880779400166        0.44109124179555        0.23474517303574
C           -3.89982256150028        0.03288321441929       -0.73078168574535
C           -4.67802309957613       -1.09338893225102       -0.56685284349095
O           -5.59839704615207       -1.55536581998412       -1.47915678664867
C           -5.86984778981316       -0.78423698101064       -2.61715646037655
C           -4.56785331295867       -1.86445897970665        0.61057293913193
O           -5.39095011740731       -2.95830585583900        0.68018259027798
C           -5.32453941942329       -3.76455530875716        1.82564000722018
C           -3.65853882084051       -1.47090083481829        1.57897210592113
C           -2.87592282138973       -0.34144772295851        1.39869429445050
C           -1.95889171724393        2.16684147290420       -1.31098790293941
C           -1.08394582229717        1.24879317993275       -2.28030768538178
C            0.28776066749198        1.13311526341449       -1.84585523921957
N            0.78044743225400        0.14766454748021       -1.08094271890919
C            2.15443571854027        0.17567973056249       -0.64092018134273
C            3.13155193610856       -0.63100874210506       -1.52671965328238
C            4.53485106001871       -0.51251318079261       -0.98837683601081
C            5.27500472902981        0.63406564746836       -1.20700369492193
C            6.55425559590469        0.76996554541611       -0.68338669218054
C            7.12053522312239       -0.24530607382370        0.06603830020734
O            8.35801528327967       -0.21407768456184        0.63416064724004
C            9.14440653787513        0.93695546457198        0.45511928326291
C            6.37906857591976       -1.42876430705854        0.28523018769837
O            7.01400496593647       -2.37922100162718        1.02565889970054
C            6.36714932984237       -3.60647672884969        1.24739566621329
C            5.10184666880064       -1.54079304778440       -0.23650953183616
C            0.05871422511730       -1.09001866963420       -0.88455317691227
C           -4.55750718983503        3.01577800853210        1.55323719614911
C           -5.54094628578809        3.13632002309096        2.62922849054874
C           -3.80375567211748        4.24351575253187        1.16981281426340
H           -4.02095677449496        0.61248175358242       -1.63223208637846
H           -6.18938165272861        0.23494837616924       -2.36426508372129
H           -6.68281492768037       -1.29627553546348       -3.13052275923464
H           -5.00538104171356       -0.73925005971401       -3.28767528071616
H           -5.58771550113382       -3.20750979917684        2.73264130563765
H           -6.05479590656054       -4.55795088765182        1.66896296348748
H           -4.33012321018248       -4.20785899280575        1.94997095215761
H           -3.54595831785471       -2.04842005504417        2.48625960083382
H           -2.18841747035867       -0.03445503116591        2.16889733831071
H           -2.90517650576046        2.27097604216377       -1.83805589236759
H           -1.44946288029956        3.12909889699616       -1.29581849857339
H           -1.59381326364353        0.29106771144540       -2.32190769390630
H           -1.14947342616721        1.77394723376565       -3.22929329886612
H           -0.38249418257561        2.74332297770386        0.52325990933460
H            0.93334168561681        1.97617111144596       -1.98048000261755
H            2.19141683740288       -0.22251479365531        0.37517880045415
H            2.49462812256179        1.21031413005201       -0.59436237507024
H            3.09133577345965       -0.23856730046002       -2.54440576908594
H            2.83457591403382       -1.68070893526930       -1.55390992245901
H            4.86262373547702        1.43689967561830       -1.79950751350979
H            7.10245651702490        1.67998829989714       -0.87046534119473
H            8.66325103666932        1.82397200061153        0.88248577262907
H            9.36477652954902        1.11479795319781       -0.60328967348287
H           10.07319038372488        0.73978771875406        0.98757034965219
H            7.07445773833056       -4.21087506907610        1.81422521459482
H            5.44775698678467       -3.47942890314098        1.83133217771120
H            6.13691922033978       -4.11593844990823        0.30485040981291
H            4.53020922489809       -2.44045770920533       -0.06958841375145
H           -0.20989609543950       -1.54921843197109       -1.84230986794049
H           -0.85071787709552       -0.91985518493569       -0.30214211261457
H            0.68423040038370       -1.78635003084046       -0.33034287338585
H           -4.76996962053566        2.23783715889201        0.85286559707256
H           -5.09077597493440        3.71209681463559        3.42071570062247
H           -5.84802388464695        2.16254982871764        2.99666080802244
H           -6.43353015409693        3.66199305695392        2.23021072021667
H           -2.78966941586854        4.20233149403569        1.57646583089629
H           -3.72476254241906        4.42376639885938        0.08979680565246
H           -4.29504472428513        5.10231088391983        1.64105029226119
H           -0.18598451666102        1.94832415643653        2.66532598435543
