72
 energy: 59.067656975297 xtb: 6.6.1 (8d0f1dd)
N           -1.20498939465546        1.95413088015547        2.31090065536435
C           -1.24511691333232        2.06596516525320        1.03790413677942
C           -2.34099561952386        1.74533399700713        0.17079307281927
C           -3.08104916203928        0.50298508268533        0.29428550043789
C           -4.02840671588457        0.11357054621123       -0.67956588598226
C           -4.73183165006781       -1.06588156131405       -0.55523370224257
O           -5.66750192628549       -1.53543902184150       -1.43962354938874
C           -6.04560611587354       -0.71987291234309       -2.51444802416730
C           -4.51336204005581       -1.89783658122331        0.56071552389536
O           -5.26576267814836       -3.04300730760855        0.58925738885043
C           -5.10799173166361       -3.88933900163819        1.69293498143926
C           -3.58681771329812       -1.51615796930060        1.51417833985715
C           -2.89936460957667       -0.32567112299894        1.39506670179144
C           -2.06384055547539        2.22451158216734       -1.23247420823397
C           -1.16973108098148        1.26232271017877       -2.06318174173716
C            0.20120773562090        1.19022587137790       -1.53836633791036
N            0.76827580885272        0.06245771439096       -1.00335551521592
C            2.11620211994320        0.09526259907710       -0.49212758399843
C            3.08436411537852       -0.61144510867680       -1.44790656658623
C            4.48693729120379       -0.49227497237631       -0.94074003526764
C            5.21427382895172        0.66458086904159       -1.14915700097054
C            6.50357545158274        0.79362799445434       -0.64852642880836
C            7.08711080755272       -0.23570569465579        0.07131760938042
O            8.34539760903326       -0.21995780007619        0.59629368537072
C            9.12557848892802        0.93216037880594        0.40897335902569
C            6.35161344886471       -1.42204066744951        0.29245712151238
O            7.00598808887566       -2.38852379862925        0.99538572201133
C            6.35789369943640       -3.61415130905303        1.21631860637754
C            5.06425825363272       -1.52766896162383       -0.20750752465348
C            0.03272249200052       -1.17059969478448       -0.81740218322724
C           -4.27159702443040        2.94467598809102        1.21638160333007
C           -5.16240075253070        2.98224676203171        2.41239433558895
C           -3.66516322918898        4.30420915813265        0.95163175117364
H           -4.22400739095418        0.74400146294316       -1.53518280163667
H           -6.41110519668180        0.25783624935862       -2.17790901243066
H           -6.84805700252913       -1.25270107601019       -3.02301093593906
H           -5.21866770897074       -0.57034222171471       -3.21571178204493
H           -5.35429584904041       -3.38072987005833        2.63207878278428
H           -5.80204520815686       -4.71206992968338        1.52966272353278
H           -4.08646018133658       -4.27851892799204        1.75588610827648
H           -3.38766794670080       -2.13087894117042        2.37623013756086
H           -2.19983116566959       -0.02461745755408        2.15645921934056
H           -2.98112213404134        2.34597743053804       -1.80259606333950
H           -1.52946649108192        3.17475197238035       -1.23290542365741
H           -1.63454610014050        0.28117830279575       -2.07135875559954
H           -1.19565417819713        1.65645265680526       -3.08200160747791
H           -0.39634446156144        2.43774352626476        0.45520254481203
H            0.85591980157422        2.03270876263759       -1.62841128564179
H            2.19800728796602       -0.37126076410875        0.49462154662864
H            2.41476424421319        1.13490626588264       -0.37082458420155
H            2.98669255247383       -0.13711563223129       -2.42729676391928
H            2.79164917349107       -1.65836622206961       -1.54349381479212
H            4.78307627995658        1.47385921409115       -1.71931727443342
H            7.04808549150016        1.70654462270950       -0.83383051675899
H            8.66054189674358        1.81537693635902        0.86170662599996
H            9.31200520088613        1.12409164826645       -0.65317471253797
H           10.07209003144817        0.73116672601722        0.90866588576157
H            7.07208917619805       -4.23024821035586        1.76167853364983
H            5.45427388237993       -3.49106562960979        1.82399385735363
H            6.10030523927787       -4.10815259960096        0.27304263428763
H            4.49093559236973       -2.42712910190544       -0.04487864412266
H           -0.22047678566106       -1.60998099980786       -1.78862311734844
H           -0.89203593143019       -1.02250049023049       -0.24359111967445
H            0.64966331677645       -1.87822115480808       -0.26826840441333
H           -4.82970253245369        2.44258104925778        0.44372774419493
H           -4.63080420356668        3.43016008766924        3.24144234016151
H           -5.52530741841509        1.99740877769449        2.66877924759391
H           -6.04747651016052        3.59210685022748        2.12141704175514
H           -2.71866965503685        4.37316202825857        1.48795213473917
H           -3.49569646013224        4.54798978180013       -0.09755642410306
H           -4.31895500785415        5.07628806569048        1.36953257523044
H           -0.31194554975695        2.21432638269613        2.71230231999657
