72
 energy: 49.890115462976 xtb: 6.6.1 (8d0f1dd)
N           -0.84948698522783        1.44994869550715        2.09542456069464
C           -1.05493633832188        1.94787923458513        0.92465614959565
C           -2.00596057404538        1.50146676856956       -0.02199850960836
C           -2.88701577543566        0.38670881063021        0.19414267977122
C           -3.82481709545607       -0.02335852320088       -0.78095505266411
C           -4.66273927159856       -1.09682576701247       -0.57538677181725
O           -5.60481829801402       -1.54222543535363       -1.46899650441258
C           -5.80847007496009       -0.82104421292178       -2.65194600330233
C           -4.58731294309378       -1.83869642155813        0.62269054469998
O           -5.43805907214680       -2.90984428612210        0.71039810935399
C           -5.40274064196315       -3.69618725941026        1.86978214000271
C           -3.68535900834579       -1.43657811186567        1.59368821763753
C           -2.85961918099121       -0.34811893167823        1.38946773992414
C           -1.91356030493699        2.12279169618732       -1.35030434162949
C           -1.03799156992037        1.22299409717910       -2.37319193095703
C            0.33815974686440        1.11929506472229       -1.94433825073537
N            0.80989153967771        0.14999673292425       -1.14946364984531
C            2.16560918658161        0.19851653552707       -0.66554762422910
C            3.13668511878346       -0.62776069868937       -1.53603920388650
C            4.53631875597592       -0.51122667962410       -1.00120005942073
C            5.27651312788634        0.63439158536493       -1.22458653724999
C            6.55270944553877        0.77158908085219       -0.69702503002620
C            7.11119813080865       -0.24172962677231        0.06111660924860
O            8.34734636612629       -0.21496082667534        0.62854153167041
C            9.13929673491265        0.93375815458815        0.46251160885470
C            6.36891060821326       -1.42465105458787        0.28399243659429
O            7.00484113866592       -2.37419911197194        1.02170779840755
C            6.36101094180565       -3.60207380055613        1.24932364929274
C            5.09416693094993       -1.53780947346446       -0.24133357227864
C            0.07867231545511       -1.07413931171126       -0.91597936278267
C           -4.78322899874688        3.14456363929294        1.67011263983287
C           -5.79321915621604        3.29442393551667        2.73483202530589
C           -3.91034462550156        4.26281416178799        1.26611959017870
H           -3.90841427454362        0.52352148040610       -1.70583578183451
H           -6.10125066999238        0.21662777937489       -2.45377367478038
H           -6.62349936778227       -1.32971317819819       -3.16602720621051
H           -4.92008575281543       -0.82940096694561       -3.29522694038737
H           -5.67189710155905       -3.12109103101876        2.76291400351132
H           -6.14359810975255       -4.47933111681738        1.71128202622273
H           -4.41924849093587       -4.15621374743842        2.02155742213201
H           -3.61548468033215       -1.97243680893586        2.52845752642979
H           -2.17223156153643       -0.03755157053787        2.15788568095282
H           -2.87999063368163        2.25021314274693       -1.83461474901440
H           -1.42840310969040        3.09829885304299       -1.30624042934136
H           -1.53625603534493        0.25830446638671       -2.43760382398338
H           -1.08947004015321        1.73174123738039       -3.33562726811667
H           -0.47288089332891        2.82350051491243        0.57229459665833
H            0.98013144378550        1.97903882951946       -2.06051526838550
H            2.18525766027803       -0.17935848813446        0.36032695102796
H            2.50573829592009        1.23579119191248       -0.64977607381163
H            3.09598224670476       -0.24891505758094       -2.55994913253644
H            2.82465852439710       -1.67310557983601       -1.54600609145317
H            4.86617662269570        1.43466105763996       -1.82231727706490
H            7.10373513632875        1.67805889317713       -0.89035669946461
H            8.65624785840618        1.82285366362687        0.88163982454966
H            9.37767055717382        1.11251289981892       -0.59147299289806
H           10.05935609584637        0.73368860828418        1.00950262624453
H            7.06959503624274       -4.19897257866455        1.82164882716566
H            5.44222419145205       -3.47752244782515        1.83218518601583
H            6.13038840193145       -4.11806939622127        0.31112362711543
H            4.51754384326255       -2.43432480044092       -0.07256816828536
H           -0.20889840492026       -1.54503524864669       -1.85958408905206
H           -0.82035634791232       -0.88510114222089       -0.32600645090783
H            0.70986183495206       -1.76492845356026       -0.36342946128499
H           -4.64646222937447        2.19207716361383        1.18974059037636
H           -5.41543678764707        3.91386283327021        3.55147572982583
H           -6.09909522883405        2.32735100720352        3.12709383818261
H           -6.69112293749627        3.79845816808275        2.35375401175462
H           -2.88085090932496        4.07826591372786        1.59376752833564
H           -3.86931662136712        4.35312133577579        0.17812982226769
H           -4.24483100792717        5.20606620311317        1.69516884816212
H           -0.14523753358566        1.94263854690134        2.63925361377631
