72
 energy: 60.211288514894 xtb: 6.6.1 (8d0f1dd)
N           -1.17092953709637        1.89537811988985        2.28575433542622
C           -1.22128520457591        2.06407001182171        1.01788038199942
C           -2.29359057502412        1.71608933749862        0.14361592646230
C           -3.05785131215188        0.49544005650219        0.28774886569593
C           -4.00572016135874        0.10089262056304       -0.68743575095467
C           -4.72211783327322       -1.06999953912047       -0.55684727340613
O           -5.65535136339611       -1.53679835915730       -1.44493883935624
C           -6.01591009480086       -0.72924741332886       -2.53149416056143
C           -4.52244420238802       -1.89334717357927        0.56942292032815
O           -5.28643368600310       -3.02983195806813        0.60473326428183
C           -5.14429277056273       -3.86989537385390        1.71567149774983
C           -3.59935621276206       -1.51113146714313        1.52665460392929
C           -2.89854609880266       -0.32850842694425        1.40126431368998
C           -2.04492558919208        2.21458700329402       -1.24282318509792
C           -1.15034973032047        1.25821158338803       -2.09162707804730
C            0.22090434553606        1.18352061751302       -1.59277076223761
N            0.77498345427798        0.07449017748045       -1.03061065990357
C            2.12446903700010        0.10955031818247       -0.51780366636376
C            3.09519919371129       -0.61567333040041       -1.46031816050196
C            4.49690781662118       -0.49672904236828       -0.94851391974982
C            5.22563508069190        0.65909094948884       -1.15808707913829
C            6.51308601729655        0.78943404878295       -0.65268770926491
C            7.09405849126225       -0.23780125076867        0.07232089159032
O            8.34992603828415       -0.22005885457985        0.60280449445469
C            9.12997968014094        0.93256250738798        0.41645123430660
C            6.35789199253604       -1.42448970206818        0.29302559586262
O            7.00987730221966       -2.38874026909406        1.00093542660604
C            6.36107447838183       -3.61441978139120        1.22150638344632
C            5.07202350863608       -1.53079366229261       -0.21128567840197
C            0.03754712976597       -1.15654002295014       -0.83133403382368
C           -4.32546845861875        2.95618766407652        1.27651901557305
C           -5.22913458404534        3.00745379280785        2.45114477993619
C           -3.68781055597661        4.29046207975254        0.98774910463848
H           -4.18945198385927        0.72343316000548       -1.55075879896431
H           -6.37405671814116        0.25546485451280       -2.20880458915839
H           -6.82031146412729       -1.25826347035887       -3.04063251956175
H           -5.18288299783832       -0.59823695620908       -3.22890747427085
H           -5.39421553138613       -3.35355306454540        2.64956170266505
H           -5.84418986677739       -4.68800913944449        1.55411656646977
H           -4.12712465028269       -4.26880731199830        1.78869555285008
H           -3.41460361472088       -2.12014804533563        2.39648905755753
H           -2.20374304635929       -0.02724214482026        2.16706423499616
H           -2.96680145950709        2.33247027614010       -1.80581858254413
H           -1.51642339474000        3.16800385615390       -1.24350197718719
H           -1.62578592872674        0.28394388101878       -2.11297347658993
H           -1.19272934352265        1.69299051845537       -3.08579234850877
H           -0.38875810258700        2.50418899349045        0.44937032003752
H            0.86979477466614        2.03124876214187       -1.68674022059690
H            2.19764744139453       -0.34599494639369        0.47408913492306
H            2.42864454029322        1.14856998942648       -0.40810703848780
H            3.00510449986920       -0.15426896580158       -2.44676089992334
H            2.80053616560053       -1.66332632694893       -1.54477957641690
H            4.79691952891519        1.46681653460514       -1.73220941526229
H            7.05799414125864        1.70187893861155       -0.83855671567446
H            8.66162870031197        1.81589752657420        0.86531554810590
H            9.32142371479845        1.12245644708638       -0.64529607025328
H           10.07405813068104        0.73367024015235        0.92149193027426
H            7.07370764691351       -4.22879118505965        1.77073182630976
H            5.45434959244786       -3.48959506894306        1.82519428048643
H            6.10755178558325       -4.11004042545173        0.27774467178183
H            4.49816551563350       -2.43010807864559       -0.04797562416260
H           -0.21998736026905       -1.60188315600064       -1.79871887770409
H           -0.88360273820158       -1.00339954686818       -0.25374495441794
H            0.65557983269108       -1.86163589200289       -0.27957181944244
H           -4.82711803215620        2.39935549991064        0.50633307548223
H           -4.71039003956455        3.47794244289882        3.27238721313844
H           -5.58028132359316        2.02458325153206        2.72403038194396
H           -6.11701294668843        3.59979265923461        2.13307954125620
H           -2.72858905723254        4.34371802408129        1.50362155185098
H           -3.53543392857355        4.52864286216169       -0.06647090739525
H           -4.31798976795220        5.07329164168945        1.41851931667999
H           -0.28649840969845        2.17414924287491        2.70015279941103
