72
 energy: 58.063778560857 xtb: 6.6.1 (8d0f1dd)
N           -1.07990165749343        1.69906835319503        2.24130786206421
C           -1.16306228086161        2.00797897364129        0.99662450559406
C           -2.17337773900626        1.63244478215989        0.07735253944370
C           -2.99343174402775        0.46244690080662        0.25880527498686
C           -3.94150905913090        0.06005779657804       -0.71339911042597
C           -4.69472291233726       -1.08463662961730       -0.56276796227822
O           -5.61941647377800       -1.54579913457196       -1.46490805586719
C           -5.92805862876170       -0.76063536588059       -2.58324637165643
C           -4.55031946186938       -1.87938553934825        0.59451576567507
O           -5.34994084921041       -2.98913715287812        0.65013634338160
C           -5.25310026770177       -3.80861984735839        1.78262809086958
C           -3.63678367136453       -1.49158933064176        1.56065815173865
C           -2.88986540426720       -0.33785891541482        1.40742158096825
C           -1.99300901742749        2.18639352022414       -1.27853985082381
C           -1.10923987606598        1.25479299049032       -2.20443181276336
C            0.26182294551347        1.14869907180845       -1.74668645624818
N            0.78258890352008        0.11342441265991       -1.08650006637626
C            2.14259197093145        0.14917277968196       -0.59509711669769
C            3.11995490285005       -0.62771565235969       -1.49956393895469
C            4.52215063063684       -0.50830180960774       -0.96965928664933
C            5.25665689654921        0.64274305073436       -1.18556141368213
C            6.53890800171523        0.77738080881989       -0.66959824238594
C            7.11061320370359       -0.24261983994574        0.07064140921746
O            8.35103855998609       -0.21401409198624        0.62634322858981
C            9.13894280219352        0.93514859731290        0.44003641250155
C            6.37339808574701       -1.42948099482523        0.28981906673552
O            7.01333244078834       -2.38268865293882        1.01891091845389
C            6.36645217821586       -3.61101461790920        1.23804071522794
C            5.09218380787861       -1.53950338637009       -0.22427206079850
C            0.05134066594691       -1.11776733283893       -0.86797706679009
C           -4.47076161955695        2.98760787207224        1.44811795569675
C           -5.41736688876845        3.08134440411397        2.56673556229182
C           -3.75819791294174        4.25723670929722        1.09821997655407
H           -4.08715912621353        0.65981657026692       -1.59936540740802
H           -6.26372689432142        0.24563253885287       -2.30309334437250
H           -6.73747647581912       -1.28032134108597       -3.09423779942435
H           -5.07626900608480       -0.68228224419427       -3.26590539407610
H           -5.51096596105502       -3.26679888961841        2.70006530050793
H           -5.97074036721697       -4.61246686637178        1.62469411529991
H           -4.24890305080914       -4.23341771172444        1.88569450093694
H           -3.49460184760220       -2.08124341962069        2.45383050705631
H           -2.20798144636947       -0.03218833370385        2.18435477886177
H           -2.92864743232984        2.29621855903223       -1.82166171643960
H           -1.47742060955117        3.14594111594041       -1.27333484596042
H           -1.60515633271208        0.29084738948621       -2.24219775613430
H           -1.17012420602646        1.77093471224050       -3.15600672706750
H           -0.39338978761499        2.66517133196880        0.50355083172649
H            0.90367290162108        1.99836513143435       -1.86165069816260
H            2.18934037130647       -0.27042332217937        0.41307393250668
H            2.46747795234386        1.18558057282041       -0.52181980067293
H            3.05871410279783       -0.20585512178999       -2.50520384369448
H            2.82686403702599       -1.67753719177573       -1.54899867243767
H            4.83690255805316        1.44682153938166       -1.77170517646785
H            7.08579800637652        1.68805521432539       -0.85644799205464
H            8.66381295796878        1.82085512076968        0.87612857691829
H            9.34749990192599        1.11688117025391       -0.62014951950879
H           10.07448384594538        0.73799180620590        0.96114166965631
H            7.07562534498987       -4.21924523589932        1.79790424019975
H            5.45094769979508       -3.48412564865083        1.82876246258182
H            6.12737213529889       -4.11344013578624        0.29370969554573
H            4.51837130050131       -2.43806304426772       -0.05918835964840
H           -0.21581693814085       -1.57463252097771       -1.82708752712822
H           -0.86100515377364       -0.95111972802041       -0.28362509864880
H            0.67433418721384       -1.81514210832037       -0.31144295210147
H           -4.80289833445076        2.28871698071479        0.70831454705305
H           -4.93814839952038        3.62138606299969        3.36620594986723
H           -5.73816847747335        2.10359931053520        2.89445391937484
H           -6.31239269989094        3.62607712035586        2.19202074250704
H           -2.76400154443498        4.25939644719104        1.55088942917865
H           -3.65237787284966        4.46609418321627        0.02798805861302
H           -4.30943710285106        5.07992977819746        1.56114209061066
H           -0.22061799647677        2.03955020646256        2.67557623348062
