72
 energy: 22.400521525021 xtb: 6.6.1 (8d0f1dd)
N           -1.34993011025769        2.30516772795321        2.36780620098454
C           -1.38426545026239        2.08856547157322        1.12719850125971
C           -2.62256033809684        1.93547050619602        0.30795201275932
C           -3.19334400427724        0.55550384535228        0.32091680918339
C           -4.14440151445446        0.17300432305644       -0.63551094164107
C           -4.78024552929385       -1.04863472431680       -0.54821662371266
O           -5.73021435527794       -1.52171224021004       -1.40860679943494
C           -6.19248743274563       -0.67230156282849       -2.42512943296940
C           -4.46357663684940       -1.91995248044264        0.51369179847940
O           -5.15316789326602       -3.09758172440265        0.51518074233299
C           -4.92318535382875       -3.98155624080067        1.57746534684168
C           -3.51670238030521       -1.53633498132150        1.44259429364120
C           -2.89652165192945       -0.30172722921272        1.35357995520632
C           -2.15951817116554        2.27585223890232       -1.17674553512706
C           -1.23330418253250        1.24388545519802       -1.87154110473183
C            0.11223680527988        1.19809023715420       -1.24300082237847
N            0.72579754577085        0.00723944323523       -0.82248069764909
C            2.07338880806167        0.03353118198971       -0.35121222542055
C            3.02764188798941       -0.58519853619658       -1.38027460676835
C            4.43532314661613       -0.46889804483831       -0.90172276065789
C            5.15737411229134        0.69253240350459       -1.10483671139258
C            6.45512350665234        0.81459985617406       -0.62763294788768
C            7.05005725707947       -0.22498774592135        0.06597425558839
O            8.31926695088850       -0.21736001959600        0.56651875796203
C            9.10269650929110        0.93064113349202        0.37119191975641
C            6.31825878239179       -1.41211691151524        0.28754238809138
O            6.98539895891935       -2.38754085253017        0.96824508899961
C            6.34050778526666       -3.61404526085859        1.18940249195959
C            5.02407163318658       -1.51291301027736       -0.18984714576530
C            0.00411530579042       -1.23368113493749       -0.73752125774359
C           -4.00263844944649        2.91847762650755        0.89680841324901
C           -4.84135859988394        2.87033328219394        2.19668539878197
C           -3.54480589174322        4.38587719613905        0.77143466528036
H           -4.40348088393275        0.83666368326187       -1.44671592710291
H           -6.59496690283188        0.26435876466713       -2.02216298935878
H           -6.98520052227325       -1.22209709333157       -2.93048084268216
H           -5.40227801654346       -0.44112385938975       -3.14519313041228
H           -5.15739560432555       -3.52039909424100        2.54305299000198
H           -5.58888971050370       -4.82460205581737        1.40260075338957
H           -3.88562551257247       -4.32886084788782        1.58992426688591
H           -3.25251741820314       -2.17592946798904        2.26633931876597
H           -2.17762546376048       -0.00709115077180        2.09989423829552
H           -3.04234550338286        2.40451102272197       -1.79992128837426
H           -1.59344934784336        3.20883568197095       -1.19038149572752
H           -1.69523244522925        0.25944822713083       -1.86727179808473
H           -1.14332612052022        1.53110597984427       -2.92788330158333
H           -0.48331505851018        2.06454764492312        0.49022858964553
H            0.78080690342806        2.02692058590710       -1.34309432854496
H            2.18848857710350       -0.50114314389526        0.59851010654460
H            2.36297171703906        1.06889538442331       -0.17171188804984
H            2.89292870595589       -0.05126571949692       -2.32273240457020
H            2.74595835112024       -1.62751973261303       -1.53398500381635
H            4.71515109260443        1.51009602021928       -1.65347468231543
H            6.99798830649643        1.72880124158743       -0.81087368599056
H            8.65527137630475        1.81337118722918        0.84282442936433
H            9.26536373073590        1.13122888303043       -0.69306026391167
H           10.06010827354663        0.71828205454011        0.84514940463009
H            7.06326080432634       -4.23592931644957        1.71677295688141
H            5.44706816425652       -3.49629530064227        1.81252387113112
H            6.06624448047871       -4.10025155524966        0.24720521059445
H            4.45390650851536       -2.41455167366216       -0.02848635386550
H           -0.21996452334736       -1.63542605382090       -1.73495514295043
H           -0.94045060097732       -1.11810912021189       -0.18930651549038
H            0.61690104741736       -1.95987798310953       -0.20914478973970
H           -4.77022142787228        2.66536583713933        0.16331252911063
H           -4.24818609233380        3.20215356804768        3.04056095535044
H           -5.24554820565234        1.88220980870262        2.38291495313758
H           -5.70825175367020        3.55366870533550        2.08439608619360
H           -2.66050181868760        4.50616481608813        1.39297445900824
H           -3.29884696850492        4.66009289699047       -0.25034834378125
H           -4.29160447047486        5.10141265994700        1.13002942884289
H           -0.41935278101842        2.44115025703731        2.73656509067693
