72
 energy: 42.437954727477 xtb: 6.6.1 (8d0f1dd)
N           -1.29008256967771        2.17015743508039        2.34701352484923
C           -1.32678537749920        2.08111473316609        1.08844564088372
C           -2.52354088807953        1.86517808840099        0.26362410063635
C           -3.15183632392382        0.52840705851684        0.31254943213750
C           -4.09848341786617        0.14845891524202       -0.65344546547374
C           -4.76154870873129       -1.05683383424616       -0.55174525261624
O           -5.70509649598968       -1.52972923232501       -1.42169860311081
C           -6.13396933401100       -0.69122442487451       -2.46128188199949
C           -4.48349647850994       -1.91232598136003        0.53331010820490
O           -5.19846919345054       -3.07664688815542        0.54510786515657
C           -4.99736482457283       -3.94595339768193        1.62450192884820
C           -3.54524366772044       -1.53105026121179        1.47286719624496
C           -2.89818369253842       -0.31339086225190        1.37285840619142
C           -2.12919911540854        2.25957208200874       -1.19475214771667
C           -1.21385644259094        1.25761767072277       -1.94377897905568
C            0.14616803236217        1.20842690070068       -1.35990885708933
N            0.74714596246499        0.02867021677766       -0.90069277653119
C            2.09164761316635        0.05762899354976       -0.40809977730934
C            3.05165417865273       -0.59645513212441       -1.40786151486753
C            4.45669111839136       -0.47873683835701       -0.91776734045964
C            5.18051445846668        0.68111609284614       -1.12246547845695
C            6.47481523210589        0.80615692046944       -0.63551187671230
C            7.06518679223206       -0.22951484990152        0.06825032716341
O            8.33039252560674       -0.21858214512342        0.57829529277728
C            9.11214869436106        0.93134352883656        0.38619524051128
C            6.33199521614827       -1.41606452364710        0.28967514663867
O            6.99414764389909       -2.38831897680769        0.97910886057338
C            6.34786749325159       -3.61437267366946        1.19998453763095
C            5.04055423813142       -1.51895256292759       -0.19690990663746
C            0.01726054553341       -1.20913047346653       -0.77160383605834
C           -4.09730839758996        2.91889664478234        1.01831220825650
C           -4.96290328560242        2.91269845208271        2.28100153688931
C           -3.59273533275764        4.35280953487503        0.84157850856197
H           -4.33099211087809        0.80094217573729       -1.48210041371025
H           -6.52137075520212        0.26281339336895       -2.08423292560153
H           -6.93073104465554       -1.23389691763211       -2.96810035729364
H           -5.32841605050489       -0.49227755188290       -3.17410668141428
H           -5.23622660701256       -3.46506135412318        2.57952586891563
H           -5.67431506495154       -4.78106925429083        1.45455643806605
H           -3.96564013637785       -4.30938268969718        1.65659053683370
H           -3.30647704182430       -2.16070657389838        2.31203229081836
H           -2.18669090502605       -0.01461256920480        2.12401301071842
H           -3.02254997771698        2.38396255884625       -1.79976895735794
H           -1.57156446531009        3.19785222588718       -1.20733441755597
H           -1.66797637823371        0.26964338646499       -1.94601957628132
H           -1.17159479183774        1.58255596615705       -2.98858505524341
H           -0.44195613893266        2.21005672875142        0.44757867685949
H            0.81499854421028        2.03461339033900       -1.45839970569451
H            2.19528359663794       -0.44969275798188        0.55760468537538
H            2.38411995402857        1.09523597160461       -0.25143205937138
H            2.93050124299942       -0.08573818445174       -2.36522207656971
H            2.76446517012674       -1.64067911085652       -1.53821997186080
H            4.74249166495057        1.49530732529028       -1.67966069871580
H            7.01845287854422        1.71990810948034       -0.81917320049539
H            8.65712364344857        1.81417230089908        0.85038093021953
H            9.28404489408018        1.12833370173391       -0.67732815765070
H           10.06568083155892        0.72421838584126        0.87018122756617
H            7.06691037344283       -4.23444172008704        1.73456783488344
H            5.45055493044480       -3.49440263339752        1.81705536048667
H            6.07999824764212       -4.10329455800459        0.25724859274112
H            4.46902549793797       -2.41964783620561       -0.03479566648984
H           -0.22073295708396       -1.63055657695047       -1.75793406503639
H           -0.91965228199456       -1.08067357241021       -0.21182647787062
H            0.63203778415332       -1.92845465448829       -0.23483278821564
H           -4.80518605506053        2.58022698808120        0.26891721981370
H           -4.39677174825654        3.29212584255978        3.12281291863602
H           -5.35705521040024        1.92756631572441        2.49796718983633
H           -5.83617093403351        3.57917704627909        2.09878465399362
H           -2.68228007404279        4.45559951651984        1.43011832274414
H           -3.37715632195310        4.61508146931726       -0.19124647486402
H           -4.30661809044884        5.09010229708506        1.22490800871949
H           -0.37107907801608        2.34958087144674        2.72635941315227
