72
 energy: 8.228339226208 xtb: 6.6.1 (8d0f1dd)
N           -1.40801533336616        2.44564565145472        2.36603056358719
C           -1.43822029797701        2.09809913553312        1.15713253152694
C           -2.67534873329382        1.97542761441981        0.31820551704294
C           -3.23163303951883        0.58268761291296        0.32660867798152
C           -4.18998927710534        0.19526842503283       -0.61802137062332
C           -4.79968252421571       -1.04063333736277       -0.54357639926708
O           -5.75572563221693       -1.51416215545530       -1.39573040748745
C           -6.25098014114553       -0.65466258253512       -2.38811513650128
C           -4.44443627565048       -1.92657354083579        0.49399919900256
O           -5.10764961198102       -3.11842775669050        0.48476970562123
C           -4.84937712437633       -4.01608083374610        1.52938898742893
C           -3.48937893166870       -1.53914469464850        1.41266337538470
C           -2.89476852093879       -0.28993707297782        1.33402090897418
C           -2.18021707923314        2.28454474261775       -1.16748855105646
C           -1.24335623933891        1.22672415873833       -1.80828179890437
C            0.08343434839566        1.18049698223823       -1.13802753357182
N            0.70185177546302       -0.01017509736201       -0.74352434338215
C            2.05494772954942        0.01145281292462       -0.29430761856649
C            3.00166176760493       -0.57311827151185       -1.35183403540919
C            4.41335787983733       -0.45846009948068       -0.88440555403211
C            5.13372345863316        0.70387491446526       -1.08744419652618
C            6.43524220103552        0.82268114340304       -0.62059854396764
C            7.03452065550479       -0.22046568073307        0.06332698853654
O            8.30662595432413       -0.21614398161988        0.55494709673481
C            9.09262333100263        0.92963520471872        0.35650127262276
C            6.30395253253775       -1.40840434635814        0.28529388227198
O            6.97572595795425       -2.38620084687194        0.95746325302080
C            6.33297289407055       -3.61376455729435        1.17932278191530
C            5.00677526018581       -1.50675184608680       -0.18260934041951
C           -0.00994309739667       -1.25637944139046       -0.70292507533593
C           -3.95610512836706        2.95492618493036        0.80184014281889
C           -4.73819827883856        2.83966624750729        2.12279517110354
C           -3.50340670688170        4.42537669647304        0.70723201872984
H           -4.47567101855463        0.86899804944171       -1.41090720934250
H           -6.66775691737694        0.26370458906151       -1.95941833948873
H           -7.03970364182263       -1.21144803486920       -2.89210417430903
H           -5.47710163308381       -0.39129207175491       -3.11520043611736
H           -5.07885355492038       -3.57510056655216        2.50530636079238
H           -5.50439714946737       -4.86636655281856        1.34892704277252
H           -3.80661963663193       -4.34833913755935        1.52305948064315
H           -3.19883887502253       -2.18905082393762        2.21942145577303
H           -2.16794530856415        0.00163364578866        2.07463302644271
H           -3.05455625705925        2.41515564914387       -1.80927440558431
H           -1.61568827349878        3.21724825253564       -1.17769473561550
H           -1.72199573976480        0.25057391413360       -1.79351196085765
H           -1.10602275624990        1.48390267927905       -2.86850921296952
H           -0.53184268524917        1.93780361530443        0.54313764605263
H            0.74496787925841        2.01914692801641       -1.22728596567406
H            2.17739723259996       -0.55023701229120        0.63866595555805
H            2.34310034409395        1.04348611259783       -0.09205308399212
H            2.85520583653063       -0.01710213346241       -2.27939376793736
H            2.72678662488038       -1.61350745613803       -1.52847228347992
H            4.68777660334597        1.52493282493955       -1.62788444327076
H            6.97707600178430        1.73730449436852       -0.80391760599406
H            8.65313926126043        1.81224321560703        0.83544996793870
H            9.24642060685630        1.13365918818421       -0.70837768679218
H           10.05324182320814        0.71091225332221        0.82077578742205
H            7.06009703604805       -4.23643033147905        1.69942662061550
H            5.44355870814017       -3.49863647946799        1.80861418854355
H            6.05257821162476       -4.09776120924298        0.23786622968749
H            4.43790472264389       -2.40934310155530       -0.02202133578177
H           -0.21959525669328       -1.63570744148435       -1.71122899379422
H           -0.96126851803728       -1.15504889703652       -0.16618905783694
H            0.60144935918390       -1.99025753191785       -0.18418668928225
H           -4.73761982001160        2.74909734856888        0.06428577660156
H           -4.10249623803993        3.11271818112765        2.95585484332560
H           -5.13790634491576        1.84174696522153        2.26548683599187
H           -5.59660361907263        3.53124452597352        2.09503209411127
H           -2.64235917858738        4.55718951836752        1.35719805121013
H           -3.22602413820280        4.70539119493769       -0.30474717146251
H           -4.27529967933873        5.12397708378086        1.04041560170709
H           -0.47170188582099        2.53395120295094        2.74177457289309
