72
 energy: 50.766554171787 xtb: 6.6.1 (8d0f1dd)
N           -1.25944242468080        2.09749260160308        2.33550508737147
C           -1.29552947704094        2.07190424859052        1.07054984667202
C           -2.46128893142247        1.82329479345197        0.23400952269318
C           -3.12855387633200        0.51868370768359        0.30646728032246
C           -4.07510218993107        0.13657826185021       -0.66239270755461
C           -4.75189042511196       -1.06032253829031       -0.55312726176444
O           -5.69237163466107       -1.53350934193502       -1.42847282013971
C           -6.10467423779987       -0.70111755483083       -2.47914202533679
C           -4.49361719244062       -1.90779013333818        0.54262072535566
O           -5.22116631482910       -3.06605879073694        0.55981006738884
C           -5.03445741285676       -3.92754124763717        1.64755346623457
C           -3.55943306080539       -1.52676212748336        1.48714098021737
C           -2.89881171899359       -0.31834494171338        1.38066557921497
C           -2.10913450964649        2.24910373132538       -1.20604176640059
C           -1.20186376992737        1.26242496716329       -1.98366761807423
C            0.16353896898375        1.20681458697760       -1.42149704803947
N            0.75383479182113        0.04084118248107       -0.93798289264909
C            2.09972513763014        0.07015151999986       -0.43682078615905
C            3.06253402626076       -0.60164796607169       -1.42143023101146
C            4.46689575347640       -0.48330395896168       -0.92531644507779
C            5.19182526976892        0.67550114859682       -1.13128074626295
C            6.48451787461549        0.80193271920939       -0.63973205049725
C            7.07269295095905       -0.23168667700539        0.06921259912419
O            8.33548152950371       -0.21908912015700        0.58415247545730
C            9.11667819996469        0.93173152877333        0.39377105432066
C            6.33870977746552       -1.41804913380691        0.29061218087386
O            6.99820299548058       -2.38843070908541        0.98445103720571
C            6.35157055498771       -3.61452362407036        1.20522962579435
C            5.04853934597006       -1.52187548116896       -0.20043028662177
C            0.02277742883887       -1.19687383472423       -0.78833130766162
C           -4.15332343116988        2.92387102441892        1.08647734535242
C           -5.02920124782971        2.93686896182542        2.32548381470052
C           -3.61763513449816        4.33590621304207        0.87832473924011
H           -4.29509103976001        0.78224916063697       -1.49999891567599
H           -6.48448502841095        0.26120081431266       -2.11519791783787
H           -6.90344638021017       -1.24032769380854       -2.98670101316603
H           -5.29179003682335       -0.51819387416678       -3.18826268939154
H           -5.27562841156481       -3.43710437424298        2.59730511882224
H           -5.71708765294794       -4.75863011633936        1.47999588442633
H           -4.00586746710995       -4.29933817511606        1.68982185939483
H           -3.33349750970519       -2.15163834314339        2.33388910247777
H           -2.19112135339054       -0.01872345842939        2.13493931943909
H           -3.01015994539963        2.37161662979447       -1.79988005852851
H           -1.55880811905842        3.19132992360051       -1.21581501626494
H           -1.65560785809411        0.27452897690329       -1.98714582159161
H           -1.18206695495876        1.60853786418112       -3.02010864569115
H           -0.42039560499422        2.28519644789331        0.43637289987651
H            0.82970568038767        2.03613427823758       -1.51503427022992
H            2.19734143391543       -0.42340070144335        0.53640067971662
H            2.39447757400458        1.10844380344324       -0.29135031107383
H            2.94932813888748       -0.10300984378568       -2.38629441265756
H            2.77359939888337       -1.64691029363950       -1.54012636770559
H            4.75610618935574        1.48807139080343       -1.69281102411530
H            7.02844700013914        1.71544096965139       -0.82382859133605
H            8.65789795232656        1.81457819584728        0.85422166229653
H            9.29336268779897        1.12692827789642       -0.66933036200108
H           10.06802552629552        0.72683046314999        0.88290403402293
H            7.06888882576462       -4.23333261921734        1.74344284378772
H            5.45253179421977       -3.49409709451749        1.81938062623754
H            6.08688686065305       -4.10492395269735        0.26232809254004
H            4.47646189140275       -2.42217893887174       -0.03800236194672
H           -0.22122329093893       -1.62659728760781       -1.76921350065836
H           -0.90994140301392       -1.06182178857154       -0.22299299515810
H            0.63858938993364       -1.91181459381544       -0.24682101226123
H           -4.81400672171294        2.53226932822858        0.32447488650566
H           -4.47310372829296        3.33758501738849        3.16377899723729
H           -5.41440348624951        1.95153671196649        2.55530248714433
H           -5.90494457215118        3.59255556525088        2.11319348438533
H           -2.69410133336967        4.42932085215286        1.44934898125543
H           -3.41651039444271        4.59088886444502       -0.16024648677201
H           -4.31299391129421        5.08616488544370        1.27278924826485
H           -0.34782001246409        2.30523919269219        2.72020001968058
