25
 energy: -42.188688349213 gnorm: 0.007411838485 xtb: 6.6.1 (8d0f1dd)
C            3.00666108442407        1.33114423079296       -0.27602455988826
N            2.19704376950081        0.15200650178413       -0.13567279462741
C            2.63489234112841       -1.11270847083763       -0.05150926002534
N            1.57439577416615       -1.95362375219778        0.08133425999566
C            0.43227613121709       -1.19911432607893        0.08085961357055
C            0.82155109168184        0.13138852395563       -0.05269816234690
C           -0.14189400040404        1.19482286853615       -0.06510093399030
O            0.05680835410084        2.38367735729013       -0.24111993214951
N           -1.44607042521602        0.68818210510107        0.16591322377432
C           -2.50513157659231        1.71837404314317        0.25566166171989
C           -1.80351918153482       -0.58844574604521        0.26785039083682
O           -2.69643561109786        2.36160198820709       -0.93740936554176
N           -0.87473423801473       -1.55583553393247        0.20521575193745
C           -1.26699917454116       -2.94633291526572        0.27041602905582
H            3.63898353106750        1.46616592480575        0.60325603038342
H            3.64459952578895        1.25201971206350       -1.15681874588411
H            2.34967035660072        2.19408027018950       -0.38045066136666
H            3.66085345994060       -1.41936876502467       -0.08223706976589
H           -2.22200010750157        2.39786396387089        1.07984413512728
H           -1.97110039405119        2.97866311646422       -1.10877930171224
H           -3.43005480654364        1.19215724969091        0.49639817241897
H           -0.87579503636127       -3.41645478751850        1.17457381225108
H           -0.90447282983618       -3.48266220916131       -0.60729462480787
H           -2.35254963420301       -2.99058832086475        0.28946056285563
H            1.63345311033871       -2.95877448739294        0.15550338602499
