72
 energy: -99.335612236532 gnorm: 0.006482901912 xtb: 6.6.1 (8d0f1dd)
N           -1.84192100649997        2.74657503004246        2.46981631079665
C           -1.73385808972720        2.13990445547368        1.38340561598888
C           -2.88231284322060        1.95567536542296        0.43193558896536
C           -3.38514291782846        0.52195201413150        0.47658195242235
C           -4.40906615104023        0.14325689814747       -0.39350352062818
C           -4.91509186310645       -1.14506999456577       -0.39430963487241
O           -5.90604229091131       -1.58996370249732       -1.19363075215086
C           -6.52894403909251       -0.69031747640169       -2.08001041650175
C           -4.37827063715599       -2.10717950137036        0.50415671858956
O           -4.92428092208666       -3.33755380969155        0.42908391340080
C           -4.49824716813430       -4.33335686312904        1.32915450304527
C           -3.36694889798136       -1.72020781222293        1.36872304303450
C           -2.87608564800605       -0.41930149004721        1.35523264066829
C           -2.33820990317022        2.27491552420717       -0.98347804047849
C           -1.43226137823409        1.17638066994982       -1.56788792183225
C           -0.08400618223739        1.13407763827954       -0.95962807034322
N            0.56849252633566        0.03267336447785       -0.60902916862422
C            1.95476814723136        0.09878155664395       -0.21093884934981
C            2.90097753278369       -0.32263515659790       -1.35182936973335
C            4.32885473406298       -0.14258570904513       -0.91831486407473
C            4.97435635068304        1.06878880210373       -1.10534258135684
C            6.28079103061954        1.25039554145824       -0.67898984711190
C            6.96769147623008        0.22185005521201       -0.05016209507997
O            8.23382015084448        0.28436868323423        0.40153106438214
C            8.97148715417006        1.47083860518563        0.21798834125276
C            6.31163751039222       -1.02419776161014        0.15076766578932
O            7.05099269473342       -1.96808292065187        0.76657037571303
C            6.49781580745026       -3.24384921611939        0.98449562159782
C            5.00474571562444       -1.18154409141415       -0.28301501160511
C           -0.03550186992974       -1.27565513381393       -0.69251126078467
C           -3.99235778391129        2.91404534741608        0.86717186611406
C           -4.85664896789592        2.43266406922441        1.98776007692783
C           -4.13230784347279        4.13302846959977        0.36400836684138
H           -4.82755117743390        0.88385227641285       -1.05325409574471
H           -6.98437621818171        0.15000706008753       -1.54755865274877
H           -7.30652885647586       -1.26447755856108       -2.57981243964605
H           -5.82381132130198       -0.31129911101621       -2.82671665443791
H           -4.68225763203447       -4.04088970058574        2.36726141462637
H           -5.09178085915308       -5.21405359771715        1.09205161027700
H           -3.43670893854223       -4.56660955372859        1.19749026851859
H           -2.95653600748472       -2.42425967831934        2.07433761716090
H           -2.10726560533393       -0.14867476049185        2.06292211557807
H           -3.18093106048789        2.41226177227618       -1.65672640373858
H           -1.78285773091741        3.21309690437806       -0.94638598105705
H           -1.93612804976742        0.21368946981875       -1.50093089538950
H           -1.30240105089503        1.40958420792645       -2.63289596892799
H           -0.78814601488157        1.71125614891297        0.99877018304127
H            0.47490532781285        2.05760908218155       -0.92197048175804
H            2.11218680963864       -0.55411159947708        0.65175920484762
H            2.19690974319648        1.12106968005049        0.08664208557603
H            2.69596448757155        0.29916087767213       -2.22495352462087
H            2.71555767356629       -1.36391634890348       -1.61753814731537
H            4.46494090014642        1.88214923605043       -1.59948576914889
H            6.75891418631891        2.20154545025439       -0.84570063782866
H            8.51281911167920        2.31350953138066        0.74431144409290
H            9.07760479827893        1.71602809486064       -0.84296109487119
H            9.95364387020017        1.27231682895522        0.64253898572568
H            7.28201611324438       -3.82361056659552        1.46732882143635
H            5.62601735714076       -3.19577912837107        1.64504194999640
H            6.21875968353267       -3.72680765105993        0.04288628283146
H            4.50089845641847       -2.12506664934304       -0.14264583941249
H           -0.21444750190649       -1.56214705032906       -1.73106824689608
H           -0.98690769430895       -1.29199993403858       -0.15525004061480
H            0.63002647338740       -2.00663600422975       -0.24081770752058
H           -5.44495382664694        2.90926039263137       -2.12175072484756
H           -4.23597579804589        2.27617237834896        2.86775480229977
H           -5.33994506158965        1.48884101275294        1.74582061047482
H           -5.61869267352715        3.16895991009254        2.22456142306129
H           -3.50467446527601        4.54585145073342       -0.40561891450654
H           -5.38159953149562        3.29818561971125       -1.44186982389817
H           -4.89901017276300        4.79108273019814        0.73805116835666
H           -1.01008657415127        2.85031684856542        3.04184463863832
