25
 energy: 105.112627697727 xtb: 6.6.1 (8d0f1dd)
C            2.63839363048874        1.63372376344547       -0.03046345201865
N            2.49016628768564        0.25501431898520        0.03594299973091
C            3.77211154580181       -0.35428343391625       -0.09546355144719
N            1.26933175868558       -2.25645869806613        0.02901369261654
C            0.43102359786622       -1.31220897519866        0.03172427769673
C            1.00498051845819        0.00573047984086        0.07770810197791
C            0.15022481577679        1.13984179546618        0.09821410149198
O            0.58576144922574        2.30960169207872        0.10801328892413
N           -1.25908887390636        0.97401966979807        0.06225375297454
C           -2.16045666628063        2.12397608304473        0.08269621965818
C           -1.86667776380516       -0.25738773569367       -0.01743092464868
O           -3.07499481937328       -0.35913670136875       -0.07735093104253
N           -1.01694750423330       -1.35471975268743       -0.01223533972122
C           -1.69085401352017       -2.63192204838143       -0.09127937049984
H            2.61427421306122        2.20080871608767        0.86757236359737
H            4.90905160050995        0.23835797881446        0.32363710277823
H            2.99983595843148        2.00710263946533       -0.97120555111731
H            4.21104858809660       -1.31738629421814       -0.23691642384535
H           -1.55821706645644        3.02418036979196        0.14003636410084
H           -2.77425255811659        2.15747190825645       -0.82418100886051
H           -2.83978441301438        2.06467127322749        0.94021351360024
H           -1.52869561105703       -3.23964823548922        0.79974954084788
H           -1.40428536860962       -3.17841570850933       -0.99147474062540
H           -2.75642880876085       -2.39161350781937       -0.14540996424571
H            0.93598798799094       -3.20339851168398        0.02179248677971
