25
 energy: 98.750604519320 xtb: 6.6.1 (8d0f1dd)
C            2.81609309424149        1.56092333530401        0.04826934841941
N            2.43455549927386        0.19360579460856        0.00704931590187
C            3.54819126901672       -0.51361561664715       -0.11002126329036
N            1.35848440134763       -2.17832344525730        0.01674945773274
C            0.46057154678298       -1.27499419698785        0.02169400466081
C            1.03066954288785        0.03713910803431        0.05973845417008
C            0.14678327843289        1.17933837721657        0.10588106561594
O            0.56973559638615        2.33884033802699        0.16387069207083
N           -1.23059860539285        0.97293626482504        0.05326754445569
C           -2.16614556719135        2.11967613197516        0.05227323018712
C           -1.81567324720150       -0.26072721646166       -0.02466657590027
O           -3.02104713460234       -0.37490572884101       -0.10237052091442
N           -0.96249737907847       -1.35977418243145       -0.00499549325472
C           -1.62880037328605       -2.63729120034973       -0.08314353661027
H            2.93412385659932        2.00536165960352        1.01592930316524
H            4.62757856863354        0.41161617802701        0.19100056377468
H            2.84351169855795        2.12600383964899       -0.83832177635614
H            4.08881904635882       -1.47402972702914       -0.20014593549187
H           -1.56228496786754        3.01754258805044        0.09924242712705
H           -2.78734316050044        2.16001859561788       -0.85286750779189
H           -2.84429037704872        2.07424274320952        0.90988886898057
H           -1.42733473623087       -3.24750653968838        0.79550646767042
H           -1.33915226598756       -3.17230392089339       -0.99001277280667
H           -2.70188858514680       -2.42079478716212       -0.10057647053093
H            1.07660256325191       -3.14323962620632        0.05624998504409
