25
 energy: -5.395558421832 xtb: 6.6.1 (8d0f1dd)
C            3.24542889039048        1.20150508644655        0.07101871298000
N            2.32942514704727        0.10119858139165        0.00648100643360
C            2.65917182304048       -1.25206926369999        0.00714923257781
N            1.45559450064416       -1.95424206729097        0.00838943936247
C            0.42082354940690       -1.08142782288573       -0.00940831660331
C            0.93617257082962        0.20473621978441       -0.00942057863967
C            0.12135450663764        1.35974351353504       -0.00207573449632
O            0.50336639321621        2.53337480686418        0.01398221032365
N           -1.27055368627152        1.03355061916257       -0.02268864283663
C           -2.21693750675899        2.14032471302653       -0.03701660662934
C           -1.82170507698572       -0.20987024016264       -0.04470192601894
O           -3.02219764970786       -0.39335313743592       -0.07059130066649
N           -0.93270991413269       -1.30997853377197       -0.03299408526464
C           -1.48900237275368       -2.64148773449012       -0.06341909674545
H            3.62227837381624        1.32160999547490        1.09368454443064
H            4.11170499089399        0.98944646677093       -0.57104497359831
H            2.70577611331868        2.10745985808958       -0.19534245065925
H            3.64476394645786       -1.65447552151448        0.00901260749498
H           -1.65223918659756        3.07106876678190       -0.01224467730260
H           -2.82572218455893        2.09882524088423       -0.94078033597427
H           -2.87591607762195        2.07324227235600        0.82933235325587
H           -1.20045625695531       -3.20058835108372        0.82804215080343
H           -1.16733122726814       -3.17367365975537       -0.96105537246599
H           -2.57473547115918       -2.53806603352416       -0.07995179150221
H            1.34911018452061       -2.95499016056178        0.00150446358119
