25
 energy: 131.929036747934 xtb: 6.6.1 (8d0f1dd)
C            2.12515397485043        1.76935773375037        0.07167512353996
N            2.15169438966173        0.37519690269006        0.08907646569192
C            4.78297250071507       -0.45301397784982       -0.30135650858316
N            1.05079328792675       -2.36937410433835        0.05381373497121
C            0.30985885253612       -1.33775762726776        0.03837785893848
C            0.89298729864723       -0.01088593217740        0.07502360767460
C            0.00256123716404        1.10859451578003        0.07418488082922
O            0.69737061683113        2.23102031796806        0.07917597389991
N           -1.33993890649155        1.02029887768106        0.06000846499216
C           -2.22289036602411        2.18075275213188        0.07509095029653
C           -1.96042243039844       -0.24606012173729       -0.01585761022202
O           -3.17118969327657       -0.32134484065734       -0.06884424554142
N           -1.11474299666462       -1.33362312494422       -0.02562486528708
C           -1.77844193939643       -2.63040774645215       -0.10961882701533
H            2.46321893153961        2.26709669943336        0.97385724674143
H            5.86961035860915       -0.19679466893709       -0.08121719896946
H            2.62519381534374        2.21881948239976       -0.79661721303881
H            4.74708334547186       -1.55046582231621       -0.18307340649186
H           -1.62117479445470        3.08562568795187        0.13344564012235
H           -2.84165543496068        2.19089122286892       -0.82555018015931
H           -2.89922245472814        2.13074886168347        0.93069923508764
H           -1.63212286949949       -3.22938397522296        0.79224513368746
H           -1.45967479348396       -3.20020568317922       -0.98408315853788
H           -2.84228779452119       -2.42479535810931       -0.19979264862909
H            0.63596839748508       -3.28560719547998        0.00782362092484
