25
 energy: 65.387524518371 xtb: 6.6.1 (8d0f1dd)
C            3.18135595615103        1.35716577124923        0.09167749929880
N            2.42662508804162        0.10524422493479       -0.01143812447130
C            3.06715412640423       -1.01125755868254       -0.18666552731252
N            1.42274379630031       -2.11867476699682        0.00219195409234
C            0.47674058413668       -1.21931037877552        0.00780897272731
C            1.00411146115474        0.08340196447137        0.01721464398007
C            0.13541292807594        1.23091747436844        0.06484209936162
O            0.52802250379027        2.38903276204458        0.09899525337586
N           -1.25210147584927        0.97904535327147        0.04110531987873
C           -2.19039507747509        2.11371866827763        0.03228807624587
C           -1.80690814533336       -0.26864684346049       -0.02285216270470
O           -3.01114676883947       -0.42112541930173       -0.09794785701080
N           -0.92441465961457       -1.35917059560344        0.00223498835141
C           -1.57945184949708       -2.64462092755986       -0.07658305853908
H            3.12649538214504        1.82696733499703        1.09524100753447
H            4.37984188823795        0.88630378291956        0.04080798375235
H            2.79172402471993        2.09285061599178       -0.63288737853857
H            4.03759968060061       -1.51244772814262       -0.11437539493278
H           -1.59260071850260        3.02184517780757        0.06738854380264
H           -2.80583623677477        2.13981137988506       -0.87510805824185
H           -2.86659051725969        2.07111363770811        0.89185613068226
H           -1.35701323769117       -3.24592125335161        0.80072638935919
H           -1.28668085047709       -3.17387812399625       -0.98383769333962
H           -2.65775678951949       -2.45313054838455       -0.09022541527840
H            1.18649249682615       -3.09224119621284        0.07538793086124
