25
 energy: 141.227649459960 xtb: 6.6.1 (8d0f1dd)
C            2.20978624701955        1.73106865530948       -0.01841556275410
N            2.19469488232585        0.37066890708964        0.08982994003187
C            4.55475073165878       -0.39916215103615       -0.28574350956812
N            1.11877781876654       -2.32530148540834        0.03505691928801
C            0.33798222553741       -1.32390027211266        0.03806983110806
C            0.91075620828449       -0.01211255156787        0.07701247057431
C            0.02662583521874        1.12229269402784        0.07213140874855
O            0.69777743166375        2.24004840947762        0.02819829023712
N           -1.31863068079153        1.00152947675564        0.06588419823874
C           -2.20582011988054        2.15846243066588        0.09070551930540
C           -1.93898209250622       -0.26329898228216       -0.01351211410034
O           -3.14948554024026       -0.32129823534730       -0.07378580138209
N           -1.08332609289282       -1.34446707366799       -0.01899188667301
C           -1.77070303202196       -2.63149924708845       -0.09796292317142
H            2.40234979896904        2.31889836569822        0.82051803348303
H            5.59552024784789       -0.09742159947611        0.15564806532940
H            2.72169722437259        2.13004386574970       -0.90746295337668
H            4.62745152468220       -1.47154308422159       -0.18644527464308
H           -1.60149829203054        3.05621876341340        0.15125617867281
H           -2.82022518536348        2.17742562357693       -0.81049326639625
H           -2.88498674136486        2.10752445670771        0.94877006875326
H           -1.66595165288759       -3.23180728382458        0.80849970992261
H           -1.47802438668956       -3.21208173116202       -0.97356447740146
H           -2.82644745803497       -2.38165514569353       -0.20395607711585
H            0.72961944357900       -3.25026734041241       -0.00154835604836
