25
 energy: 129.231441715008 xtb: 6.6.1 (8d0f1dd)
C            2.06200632260711        1.80218092985692        0.12249098103720
N            2.09338350276629        0.39332045872398        0.09581461947425
C            5.00309368430787       -0.48843489418326       -0.28184867215072
N            1.03308495235364       -2.35429686265699        0.03796436282768
C            0.27466466034699       -1.33976784984145        0.03098260926236
C            0.84106831955882        0.00003941635533        0.06444488267774
C           -0.02799736654486        1.11478988955469        0.06912868343622
O            0.67095442888552        2.24827969645651        0.12014084415304
N           -1.36541645290328        1.03930190788176        0.04431646087435
C           -2.24526270770943        2.19490760144361        0.06463285798546
C           -1.96539486579536       -0.22847884061371       -0.02307718599622
O           -3.17382699464594       -0.30113712894097       -0.07708403140762
N           -1.14509817530839       -1.33259002814186       -0.02063969935779
C           -1.79395638564701       -2.63256606984108       -0.10174627554053
H            2.51117851645227        2.20906939416667        1.05498616936724
H            6.07441187567231       -0.21536538413634       -0.34102197371697
H            2.61131501268783        2.26362089843257       -0.71232268579616
H            4.93599389601314       -1.59605778142497       -0.21328030260547
H           -1.64787077949146        3.10054102673550        0.11805499337592
H           -2.86595128703099        2.20416778565233       -0.83313792730249
H           -2.90579878984603        2.12967855443329        0.93078152565863
H           -1.58343708984490       -3.22124155635594        0.79206550861219
H           -1.44362637609509       -3.17200629427194       -0.98539671235922
H           -2.86432986311591       -2.46621424166094       -0.17979570993435
H            0.58332106978088       -3.26913903649745        0.01473836643240
