25
 energy: 135.841650677966 xtb: 6.6.1 (8d0f1dd)
C            2.16467804494725        1.75198680865219        0.02415335071177
N            2.17372075070017        0.37146257373424        0.08698114869648
C            4.66976929220672       -0.42113376828065       -0.29946844247894
N            1.08655754414615       -2.34082188496536        0.04379010086274
C            0.32332128623822       -1.32314637277094        0.03807060994953
C            0.90370863913968       -0.00603895241098        0.07679160817935
C            0.01803486812733        1.12367470510658        0.07412534072259
O            0.71204835164413        2.24013540680053        0.04170486643556
N           -1.32322555212943        1.00775080126047        0.06471116263919
C           -2.21378021828608        2.16557506729108        0.08422163736541
C           -1.95151068795686       -0.25568815737932       -0.01571259608298
O           -3.16367641622195       -0.31485172900356       -0.07420066012710
N           -1.09977199456934       -1.33859664447687       -0.02311166442818
C           -1.77906543776645       -2.62845603913229       -0.10431715761490
H            2.43096511181085        2.28711684492948        0.90165872642416
H            5.73578137935726       -0.13576828598256        0.03672013633771
H            2.67089332602008        2.17750689060488       -0.85738564197626
H            4.69763102214634       -1.50403360962849       -0.18255944026835
H           -1.61350707472993        3.06848015726756        0.14204582808948
H           -2.83066185646447        2.18359512562974       -0.81592585956770
H           -2.89220991823469        2.11734445272111        0.94084457663588
H           -1.66305079452452       -3.23043086498080        0.79789636726207
H           -1.47926392541076       -3.21097501669727       -0.97811789013302
H           -2.83593327753513       -2.39816915754859       -0.20493797464697
H            0.68103535883106       -3.25919365911660        0.00487410687275
