25
 energy: 94.764600039642 xtb: 6.6.1 (8d0f1dd)
C            2.74586118286018        1.59447619781145        0.01617424748465
N            2.45449578104726        0.21666934006351        0.01900459836326
C            3.62822119945664       -0.44305180043972       -0.09667692643329
N            1.33051236399370       -2.20042932305504        0.02043149144342
C            0.45545488118043       -1.28363845756114        0.02205629990908
C            1.02728122716154        0.03189795842240        0.06641348243698
C            0.14631583192785        1.16105080718255        0.10491209651792
O            0.56235037190377        2.33020661387192        0.16039282694652
N           -1.24081123267294        0.96912237566681        0.05203224721118
C           -2.15962285090173        2.11878093789234        0.06305136679948
C           -1.83322196925355       -0.26065221659964       -0.02318630987768
O           -3.03955854400153       -0.36862268515998       -0.08618220411558
N           -0.97858301933170       -1.35830526464633       -0.01009853495064
C           -1.64776229030610       -2.63555454127951       -0.08601847069787
H            2.82859117428898        2.07947475134034        0.95507646211066
H            4.72505194127093        0.33530710718863        0.24935283489462
H            2.91006084112084        2.08730024352125       -0.90076017254816
H            4.11655529004142       -1.41869012043656       -0.23983973432232
H           -1.54733806207143        3.00994200713086        0.11550896119095
H           -2.78206043137831        2.16325015846688       -0.83999680472884
H           -2.83353506581111        2.06712889817283        0.92386819148818
H           -1.45566176463281       -3.24590234585556        0.79542524561420
H           -1.35822986251968       -3.17500714684071       -0.99074315445872
H           -2.71971784563786       -2.41009392897533       -0.10816214458740
H            1.02894577035162       -3.15920728380407        0.04053829721690
