25
 energy: 14.854379608799 xtb: 6.6.1 (8d0f1dd)
C            3.22663572530244        1.28908805895528        0.07195257949425
N            2.39735249550836        0.11019987696548       -0.03439080540772
C            2.85577674334073       -1.24435096257079       -0.05231784061028
N            1.57114788873104       -2.01216489256222       -0.00490965326511
C            0.49698336773811       -1.15398194747355       -0.00132844240739
C            0.99004018926840        0.13094066728178        0.00181871530952
C            0.13155780922289        1.27091537924133        0.03009754386936
O            0.50717941838848        2.44073252303906        0.05585962661654
N           -1.27476627398995        0.98667832053198        0.01747062941223
C           -2.20364476847543        2.11659945777929        0.00481341529580
C           -1.81307204045855       -0.26354653129222       -0.03000594512569
O           -3.01930775443383       -0.44154077420093       -0.09052074229249
N           -0.89287075137194       -1.35645634864412       -0.01358107078264
C           -1.53170327128649       -2.64864078339079       -0.07209994916741
H            3.32164754368864        1.61907455219857        1.12923877567768
H            4.30594664585819        0.90888989624580       -0.22000731737697
H            2.74999978131488        2.10559910202200       -0.47791157104678
H            3.85649593250799       -1.63731963827611       -0.08512650101630
H           -1.61421272214453        3.03346453525065        0.03381564023374
H           -2.81626493849195        2.12158901001958       -0.90123265175962
H           -2.87084102949337        2.06447641038369        0.86901923107038
H           -1.29470701381506       -3.23542507426240        0.81149018826731
H           -1.23893742615605       -3.18157140229000       -0.97636773367943
H           -2.61525322734995       -2.48160113619283       -0.08797211771125
H            1.30188480974244       -2.99111217874421        0.07240805277603
