25
 energy: 129.792698028132 xtb: 6.6.1 (8d0f1dd)
C            2.08552124818804        1.78616708466467        0.10985714532170
N            2.12199818895333        0.38432357795339        0.09187252387361
C            4.89364459378257       -0.47039641756221       -0.29038316099368
N            1.04041559838775       -2.36831609489908        0.04433967671078
C            0.29127606490088       -1.34246813279297        0.03403201635929
C            0.86829598774816       -0.00834058606795        0.06984880695628
C           -0.01758037801442        1.10507087216410        0.06981070296387
O            0.68356619606841        2.23140086672656        0.10211556212140
N           -1.35072555329465        1.02726350092935        0.04952523981356
C           -2.23474659703392        2.18563942380435        0.06915790093205
C           -1.96115884731034       -0.24178785156229       -0.01536818730950
O           -3.17093991719071       -0.31387765572165       -0.07069209494581
N           -1.12914747712953       -1.33689013415245       -0.02262313678679
C           -1.78700989936802       -2.63460217831086       -0.10600861895919
H            2.51469263642725        2.23405149000159        1.02637761591678
H            5.98693351712244       -0.23649075400807       -0.22582319777166
H            2.56919407400244        2.25691291948006       -0.74720483522837
H            4.82814192237330       -1.57882886122889       -0.20284346558944
H           -1.63264128505093        3.08821964461456        0.12387775388836
H           -2.85447677188932        2.19913998545866       -0.82894274508525
H           -2.90861909636862        2.13223336283322        0.92627921331324
H           -1.60887756363050       -3.22914777061948        0.79260125522598
H           -1.45202784782306       -3.18807619130707       -0.98553304892081
H           -2.85362857179632       -2.44553796778254       -0.19091665698848
H            0.61378893766612       -3.29016847874835        0.00599166663803
