25
 energy: 128.917586967368 xtb: 6.6.1 (8d0f1dd)
C            2.03836249099613        1.81130623390689        0.14011168008880
N            2.07433123268473        0.40176722818663        0.11663280947405
C            5.13631280381814       -0.52455659597150       -0.27470363534312
N            1.02111094035601       -2.34067816782840        0.04859920122568
C            0.26838170099693       -1.33014959370980        0.03767763040627
C            0.82177938488476        0.00873041839013        0.08145689364562
C           -0.03982736597513        1.12510802319639        0.09077476454990
O            0.65363598241903        2.26020092927455        0.13258716930425
N           -1.37592545616088        1.03843003796042        0.05192767221194
C           -2.24436206163896        2.19656410804911        0.06821701816100
C           -1.97576039097188       -0.22981814539515       -0.01983283512774
O           -3.18477913395719       -0.31139254479293       -0.07554928754289
N           -1.14824694224478       -1.32707502114002       -0.02320219455602
C           -1.79247440754448       -2.62803019894826       -0.09939157573938
H            2.51138545010918        2.21412306354894        1.05426186799106
H            6.20180413463317       -0.23620258172893       -0.38022299592885
H            2.54864331808390        2.25175664563396       -0.72262442730433
H            5.02295049752064       -1.62587444179209       -0.24604397173026
H           -1.64156482741981        3.10081314309086        0.11762911431492
H           -2.85823277184911        2.19736169417934       -0.83316348569029
H           -2.90852519896937        2.13473020125826        0.93141732645170
H           -1.57455576712411       -3.21233486671990        0.79929635373491
H           -1.44730529484930       -3.16802797750832       -0.98146797813122
H           -2.86751876295797       -2.47478951965501       -0.16823179229329
H            0.58495232619702       -3.25103247047802        0.02897512631692
