25
 energy: 131.224309694579 xtb: 6.6.1 (8d0f1dd)
C            2.04025098819952        1.82938705605854        0.14861104617239
N            2.07248378481997        0.42301371267083        0.11510998795885
C            5.17246801366771       -0.61715959942481       -0.28775139165091
N            1.02921174376184       -2.32735985482363        0.04473735540660
C            0.27406399834425       -1.31935945466113        0.03032081233980
C            0.82308210698039        0.02027455136663        0.07316714976316
C           -0.04286553346237        1.13160661111479        0.08203121266923
O            0.65244509777576        2.26692220382036        0.13067837937657
N           -1.37379056525149        1.03865285801094        0.04730692757187
C           -2.24931281721735        2.19458267047076        0.06439898081826
C           -1.96973478655990       -0.23294320752327       -0.02258787530216
O           -3.17718351815421       -0.31394312709737       -0.07599810530222
N           -1.13826623566167       -1.32779916959836       -0.02570460315321
C           -1.78340632873155       -2.63152250133921       -0.10075270283588
H            2.51864226037077        2.21914858082035        1.05714583072121
H            6.19681841305099       -0.24504634144992       -0.37577143086475
H            2.55852937126007        2.26313087573014       -0.71777130948537
H            4.97059778759743       -1.68980434136796       -0.22391192871489
H           -1.64957691049616        3.09992923230039        0.11252593398031
H           -2.86533209881631        2.19478652751430       -0.83497914758386
H           -2.91146758052192        2.13130570642158        0.92816915750927
H           -1.56806575880843       -3.21340748361895        0.79764105795162
H           -1.43523620074272       -3.17219851116113       -0.98278697307018
H           -2.85728692997562       -2.47828537527487       -0.17638511241186
H            0.62514600354343       -3.25488283021440        0.01959066033156
