25
 energy: 121.338047801150 xtb: 6.6.1 (8d0f1dd)
C            2.57884030194617        1.63901565286304       -0.03845378225042
N            2.49733925113656        0.26483604610359        0.04706467494082
C            3.86702542509968       -0.34482328112695       -0.11108802577688
N            1.23164487385792       -2.28085497690523        0.03482570768321
C            0.40830942917848       -1.32133227874739        0.03917870622586
C            0.98787752493558       -0.00993729527037        0.08965931820691
C            0.14178861814718        1.13148556727071        0.09804540196154
O            0.61023772630683        2.29235783615831        0.08842455111476
N           -1.27280980679418        0.98277330553909        0.06682688587628
C           -2.16870575213575        2.13426046859067        0.08637431137716
C           -1.88463999630499       -0.25398735559159       -0.01615641938051
O           -3.09343791539055       -0.34780115293990       -0.07811537004650
N           -1.03949833886154       -1.34985000531362       -0.01286592791037
C           -1.71269134825753       -2.62989324304831       -0.09360255205120
H            2.51572244003174        2.23646820781448        0.82373523282137
H            5.02686172604685        0.16207241402831        0.32371774722027
H            2.97124962933080        2.00358710605392       -0.96932530858465
H            4.28400226327024       -1.31956426288119       -0.24471946277349
H           -1.57230712732988        3.03945972273657        0.14346229388526
H           -2.77709682397242        2.15334415809667       -0.82053566962126
H           -2.85336978356455        2.07444580501967        0.93942353063252
H           -1.56410823015439       -3.23749427234987        0.80074390170143
H           -1.42333874493530       -3.18168646307621       -0.98918200573608
H           -2.77522621140387       -2.37975445836623       -0.16223067689742
H            0.88610397562185       -3.22315096511728        0.01531742166258
