25
 energy: 23.804755545260 xtb: 6.6.1 (8d0f1dd)
C            3.20387883113324        1.31096567287368        0.07248666640541
N            2.39057051801371        0.11612389835355       -0.01479550614938
C            2.88411616824720       -1.20263955087273       -0.07556329598570
N            1.57191431134920       -2.02298419205926       -0.01928370010524
C            0.49756816151625       -1.17055851370157        0.00171528466798
C            0.98969327574951        0.11389225374580        0.01772708408358
C            0.12769694287264        1.25756720669534        0.05270143124862
O            0.51057401865054        2.42233509683555        0.07457106658713
N           -1.26628661140227        0.98003821129095        0.03360874792349
C           -2.19911918824310        2.11254348425710        0.01946960598934
C           -1.80428313093059       -0.27129870311027       -0.02289830442958
O           -3.00981642850553       -0.44557863190051       -0.09716139467623
N           -0.89148018123675       -1.36658932093267       -0.00276036103432
C           -1.54934881205126       -2.64907864384303       -0.07451312709925
H            3.22534522513126        1.71621037703219        1.11226394985865
H            4.33960079012237        0.88921960518439       -0.09805369802754
H            2.76722454850682        2.09778884472881       -0.55930991592161
H            3.89952505891603       -1.60721498571432       -0.10859435296852
H           -1.60361639924380        3.02501403420960        0.05115342177658
H           -2.81150911459443        2.13058552510093       -0.88842398516961
H           -2.87108989201365        2.06363739645512        0.88142343966665
H           -1.32596712035299       -3.24433286528830        0.80608498054674
H           -1.26225655752217       -3.18001983659540       -0.98160353780190
H           -2.63121195485624       -2.46450375596165       -0.08883059901760
H            1.28447441428278       -3.00174217813761        0.06026323272168
