25
 energy: 81.511203636191 xtb: 6.6.1 (8d0f1dd)
C            3.13729893775678        1.40530345399600        0.07430759092112
N            2.43386813162181        0.13350477159309       -0.00415501463277
C            3.13693776330159       -0.92451640155067       -0.16623889060957
N            1.39017455447943       -2.14055287600176        0.00469586981236
C            0.46388910959147       -1.23346108289982        0.01656158610573
C            1.01238322338443        0.06973104077030        0.05084398253097
C            0.14152469390168        1.21411229898049        0.08750052576964
O            0.54923927477973        2.36979339229300        0.12965341408990
N           -1.23783243859153        0.97888835497183        0.04760797606664
C           -2.17889453871260        2.11932975471273        0.04321727935152
C           -1.80746469413127       -0.25874613003295       -0.02488573464004
O           -3.01231706220940       -0.39693675966041       -0.10155075013465
N           -0.94189895572513       -1.35793736344275       -0.00278378355767
C           -1.60351838633103       -2.63908176829455       -0.07989678948243
H            3.02273273973458        1.90871492483224        1.05278566809733
H            4.45422424750509        0.86284292107247        0.14128551592104
H            2.82964802650129        2.09571596153691       -0.72142914288899
H            4.09652799198118       -1.45603615649767       -0.15734502973994
H           -1.57619074842333        3.02070439285221        0.08365636851690
H           -2.79777446512027        2.15301455194366       -0.86271628451674
H           -2.85545317184713        2.07745533597731        0.90269179395599
H           -1.39323837177263       -3.24629382307690        0.79767740973407
H           -1.31577444785517       -3.17280851569515       -0.98720535049834
H           -2.67950395305019       -2.43371441951648       -0.09373778944640
H            1.13780082832136       -3.11332265085665        0.06134928741939
