25
 energy: -1.385029511047 xtb: 6.6.1 (8d0f1dd)
C            3.24515525422940        1.23210060006752        0.05860126413104
N            2.35601265258114        0.10066772752330       -0.01985900998993
C            2.72419404851157       -1.26507152748896       -0.01930473510462
N            1.49512485057224       -1.97391601514531        0.01311085330535
C            0.44657643629764       -1.10640643018545       -0.00831516811677
C            0.95558583635934        0.17797301573873       -0.01584133277097
C            0.12703824928228        1.32698660019474        0.00129433208899
O            0.50563090832197        2.50004654313183        0.02643081907320
N           -1.27256598421221        1.01226716107174       -0.01479805606371
C           -2.21177658170968        2.13085701206753       -0.02379866552780
C           -1.82087234295831       -0.23072882333731       -0.04559174559935
O           -3.02382021658451       -0.40906686787362       -0.07469696381977
N           -0.92111652471455       -1.32647757962263       -0.02843948337231
C           -1.50311804934452       -2.64509554685164       -0.06630589006721
H            3.52074408792385        1.42149612007046        1.10984756261206
H            4.19199895929225        0.95371089653171       -0.46278899024937
H            2.71287468421087        2.10984869006824       -0.29894837878341
H            3.71638510061574       -1.65729935854928       -0.01989741766912
H           -1.63865275238803        3.05729350692195        0.00248319956335
H           -2.82422880065282        2.10761054565790       -0.92671179837259
H           -2.87356877942212        2.07258552560639        0.84237477768519
H           -1.23281044668299       -3.21226287665656        0.82392811739772
H           -1.19071530484118       -3.17848697115683       -0.96541098232518
H           -2.58817062544850       -2.51965031263964       -0.08492515502059
H            1.33084975815850       -2.96869488131118        0.02645459654539
