25
 energy: 148.073455526529 xtb: 6.6.1 (8d0f1dd)
C            2.30871106319977        1.69114365730292       -0.05594461145796
N            2.21884620062616        0.37141532435830        0.09192015913775
C            4.41431197514787       -0.38346936022031       -0.30537777012132
N            1.15490431563420       -2.31383664527624        0.04042643012875
C            0.35479669905933       -1.32851197120668        0.04071708762957
C            0.91799205089134       -0.01634389650489        0.08385364055639
C            0.04536721143220        1.12993939751027        0.07585241350178
O            0.66702659451203        2.24996551386769        0.02925315600634
N           -1.31530197683854        1.00302331384857        0.06680721384187
C           -2.19829680137964        2.15934706238845        0.09166796824774
C           -1.92401418754370       -0.25729642764975       -0.01479912356335
O           -3.13281911079113       -0.32698524503621       -0.07600229483964
N           -1.07097999474250       -1.34374317867749       -0.01745187776264
C           -1.75255060988442       -2.62837107728109       -0.09745596466828
H            2.40998151794788        2.31259142950130        0.75755650567748
H            5.42644608907044       -0.01522667572943        0.22621350890687
H            2.79615887949419        2.08663677549958       -0.95374854097126
H            4.53668068641353       -1.43535691378687       -0.17492101665916
H           -1.58929813871868        3.05605063424234        0.15479854577964
H           -2.80826754199533        2.16869283350939       -0.81174878583323
H           -2.87875798854513        2.09993160119585        0.94638185671670
H           -1.63280841647654       -3.23102611124450        0.80623760589496
H           -1.46051263247695       -3.19739800936730       -0.98016459700410
H           -2.80860915223437       -2.37017930107840       -0.20129249186347
H            0.78410034894391       -3.24597434472431        0.00929224049810
