25
 energy: -42.540955509549 xtb: 6.6.1 (8d0f1dd)
C            3.21320002993077        1.17327087844242        0.09186145916722
N            2.26515352701761        0.08991605560751        0.05913861834447
C            2.52972721327121       -1.22071247381089        0.08330525647181
N            1.44314807206111       -1.97429765354033        0.04181287034558
C            0.39507554284713       -1.09905046278309       -0.03406961079150
C            0.89411995453078        0.19790545125662        0.00434170753759
C            0.07667518318824        1.38136330640619       -0.00255321623438
O            0.48321981128225        2.53090897235197       -0.00674666598597
N           -1.28491456270399        1.07810468121868       -0.03306239549322
C           -2.24009709425902        2.18041725794870       -0.05426249335118
C           -1.83562400257746       -0.18876535248944       -0.04861805468570
O           -3.03664191630653       -0.34664678362853       -0.05874440533682
N           -0.96073235528825       -1.27660865258926       -0.05896474317993
C           -1.51972485007431       -2.61279618679001       -0.05704785764989
H            3.70619655590734        1.21008509772721        1.06279556638897
H            3.97147579642748        1.03269587622087       -0.67904397986168
H            2.68585013108548        2.11121699774296       -0.07710063023293
H            3.53164820631199       -1.59691667599966        0.08223437800270
H           -1.68434798167697        3.11688364361655       -0.03413371201267
H           -2.84692403463552        2.12563503530412       -0.95720727060596
H           -2.89979475728667        2.11326797050389        0.81009449928694
H           -1.20524255857546       -3.15448004598506        0.83394789765308
H           -1.19471796686566       -3.14417685914748       -0.94902790464842
H           -2.60130307623759       -2.51470410229898       -0.06284533007291
H            2.20925076932354       -3.45137199852315       -0.13061271297457
