25
 energy: 0.000000000000 xtb: 6.6.1 (8d0f1dd)
C            3.23720163006194        1.16630919979326        0.08434469647475
N            2.29877817382611        0.07527477071623        0.03981603040599
C            2.58028210190900       -1.21425402444508        0.03006176031096
N            1.43813958087363       -1.93419271955128        0.00098261760884
C            0.39035688448383       -1.05887472636071       -0.00790371836672
C            0.93510056364412        0.21347819449412        0.01709077491437
C            0.09450143893243        1.40504303904423       -0.00410947031874
O            0.49712751527797        2.54126714362870       -0.00342325688240
N           -1.25076640035757        1.06271879480407       -0.03085478223738
C           -2.21907211982101        2.15522099834493       -0.05001256985998
C           -1.81739487048744       -0.20012725993278       -0.04692818574614
O           -2.99983886758376       -0.37846417018721       -0.07008878229737
N           -0.92618586207120       -1.30210215599479       -0.03682761578324
C           -1.46982264913417       -2.64643102187190       -0.06029820460571
H            3.71247264356769        1.21471455160235        1.06488849150277
H            4.00791497605742        1.03430808813993       -0.67357694370751
H            2.69910007168542        2.09770118228144       -0.09130154882931
H            3.56654120610678       -1.63682992603973        0.04233140067262
H           -1.67107961066214        3.09322851271934       -0.02552706933167
H           -2.82428953597071        2.09428624779827       -0.95318082946668
H           -2.87644029173232        2.07745725625962        0.81450067533302
H           -1.17061996399332       -3.19584890659852        0.83242232437030
H           -1.14560257411436       -3.17511610292205       -0.95688275822323
H           -2.55549792440841       -2.55659984320617       -0.07459039797972
H            1.38130855184625       -2.94313852034425       -0.01389874181052
25
 energy: -0.329492865224 xtb: 6.6.1 (8d0f1dd)
C            3.22993340684259        1.17564191789625        0.08771483534694
N            2.29108619290441        0.09426779272928        0.04110129411112
C            2.59818816679527       -1.22833992952138        0.03394863333960
N            1.46831537597525       -1.98981288281056       -0.00303700727655
C            0.40336709351401       -1.09322337637400       -0.00746224394232
C            0.91576460134854        0.20668410768371        0.01716008977670
C            0.09208563430163        1.39545973530237       -0.00447381351484
O            0.49189946618340        2.56110867114630       -0.00363203564300
N           -1.27041181266993        1.06393158440609       -0.03151227673521
C           -2.23098062827514        2.16634221037891       -0.05226983576989
C           -1.82680183584696       -0.18989328400890       -0.04665415269281
O           -3.02471812220957       -0.36576680937864       -0.07006256010057
N           -0.93806538263765       -1.30212712128934       -0.03611219546478
C           -1.49416515417439       -2.63052247501145       -0.05701894974412
H            3.71223064036019        1.21570770457154        1.06806454124287
H            3.99741744270999        1.03123418440864       -0.67465369123838
H            2.69853552005382        2.10873127016022       -0.08805392088628
H            3.57606116935356       -1.63761453812571        0.04835251960804
H           -1.67671731008897        3.10294407777519       -0.02881112705295
H           -2.83943907686069        2.11562302421157       -0.95528159727673
H           -2.89254427789678        2.10122188176243        0.81147356055592
H           -1.18476983673571       -3.17649209873620        0.83489309898394
H           -1.16681304313175       -3.15649583767586       -0.95445666105279
H           -2.57892577268958       -2.52923162471481       -0.06691588196579
H            1.56168221081067       -3.05034958261363       -0.03526672646082
25
 energy: 17.250999645402 xtb: 6.6.1 (8d0f1dd)
C            3.22059833508351        1.17905702147452        0.09107225605735
N            2.27479491689787        0.11167957063131        0.04158289632440
C            2.60559736943497       -1.23591490527244        0.03944798050448
N            1.49746746648211       -2.05540276744911       -0.00637573100775
C            0.41317401635249       -1.13978707479913       -0.00951664720085
C            0.88617490913834        0.18942300829574        0.01689350840449
C            0.08871661907675        1.37365139208502       -0.00397341653361
O            0.48147492672228        2.55799119665993       -0.00323664389223
N           -1.29933920135116        1.07332834263789       -0.03247016416521
C           -2.24726074002765        2.18702359417119       -0.05513321768769
C           -1.83573099049690       -0.16931180464006       -0.04681477748081
O           -3.04166321169179       -0.34799899533937       -0.06984642966311
N           -0.95627418753271       -1.29270593270111       -0.03639353612335
C           -1.52809376039489       -2.60614263548964       -0.05269230251222
H            3.71126456217991        1.21358110484745        1.07000273767698
H            3.98498347250078        1.02599150928455       -0.67583292046452
H            2.70138791658910        2.11883425328120       -0.08259288812988
H            3.57931500134204       -1.62935082470239        0.05715753765932
H           -1.68451261636451        3.12038984618057       -0.03281590552242
H           -2.85866383515265        2.14428474599938       -0.95793239691177
H           -2.91291927567352        2.13295994554188        0.80762481885989
H           -1.20666781384920       -3.15233978022625        0.83574371792673
H           -1.20013151800959       -3.13364353382322       -0.94972659235416
H           -2.61153870049087       -2.49783430369627       -0.05601830057344
H            1.85006100717150       -3.17873437077961       -0.06111968704335
25
 energy: 35.705147070930 xtb: 6.6.1 (8d0f1dd)
C            3.21337629418430        1.17797144118469        0.09336980741100
N            2.26761611224935        0.11120501548906        0.04133837889911
C            2.60745306682669       -1.23800419580038        0.04174422237512
N            1.52202869841492       -2.09276385156977       -0.01109322544791
C            0.42150224491698       -1.16962992929732       -0.01690760311164
C            0.87484334627456        0.17178438744713        0.01483821113067
C            0.08582345197570        1.35972324070253       -0.00342937718572
O            0.47628412925725        2.54357206021807       -0.00135991116784
N           -1.31614251375552        1.08499723559289       -0.03338705576483
C           -2.25967333939229        2.20291207361464       -0.05718138288029
C           -1.84010055818962       -0.15819552027079       -0.04724663612708
O           -3.04529749552069       -0.34486308779016       -0.06885381754858
N           -0.96136286930229       -1.28476412028654       -0.03886827587175
C           -1.55375763802959       -2.58953187851076       -0.04939057845857
H            3.70644608020659        1.21083243397307        1.07116098281964
H            3.97481411523305        1.02557445476188       -0.67614362118482
H            2.70109082698023        2.12385909206851       -0.07666012768194
H            3.58807929066668       -1.61773832241792        0.06569817462178
H           -1.69577322013814        3.13537798754284       -0.03571772293005
H           -2.87384147564692        2.16437569557451       -0.95892039103279
H           -2.92869229595481        2.15524805700456        0.80401866308296
H           -1.22856049480075       -3.13611177651458        0.83715601563934
H           -1.23499735665354       -3.11965250815612       -0.94795490028848
H           -2.63663065055824       -2.47159384428483       -0.04494389750525
H            2.04768691869233       -3.25555553810322       -0.07423203564482
25
 energy: 45.876902989166 xtb: 6.6.1 (8d0f1dd)
C            3.20874121930564        1.17272086254550        0.09258491861017
N            2.25919301144031        0.10640078058839        0.04334831777782
C            2.59303209720643       -1.23700491903572        0.04903638032083
N            1.53002657376131       -2.11415937948931       -0.00021818101599
C            0.41934344903377       -1.18127009144406       -0.02499475111819
C            0.86640523985664        0.16354153804711        0.01494073855325
C            0.08196132575491        1.35774604241183       -0.00045458274990
O            0.47288859971410        2.53580187919391       -0.00177222060452
N           -1.32727609264782        1.09980909117547       -0.03344434650906
C           -2.26825940396223        2.21643493147297       -0.05807426986156
C           -1.84730151149414       -0.14661400600267       -0.04828591294256
O           -3.04967778168051       -0.33959871359775       -0.06752494996855
N           -0.96784777668738       -1.27226746980405       -0.04391683220904
C           -1.56863721470383       -2.57714698203230       -0.04814552992831
H            3.70186707987231        1.20578282354581        1.06961129988725
H            3.96794292228367        1.02089080408919       -0.67826718000071
H            2.70191751322853        2.12336550798904       -0.07540247758858
H            3.58104993939651       -1.60621654886706        0.07118472926890
H           -1.70459051014465        3.14839831728627       -0.03683500598814
H           -2.88251543288723        2.17623946530199       -0.95985060932163
H           -2.93739544673418        2.16814931056196        0.80310926187357
H           -1.23923855365250       -3.12288922391261        0.83701737360509
H           -1.25499084499864       -3.10954199633120       -0.94674699843683
H           -2.65085793957464       -2.45961607747130       -0.03852545148920
H            2.22643420624982       -3.33992734404941       -0.09133982401683
25
 energy: 40.753538140018 xtb: 6.6.1 (8d0f1dd)
C            3.20406532044898        1.16218041323127        0.09156011856495
N            2.23741238216702        0.10331294846263        0.04617938140532
C            2.54281094900062       -1.23358946251399        0.05581846597874
N            1.51062244303323       -2.12995112054177        0.02231700652661
C            0.40095167889637       -1.17511103621575       -0.02768017457061
C            0.84860878985579        0.16912509106292        0.01540216387921
C            0.07639346849440        1.36810856236923        0.00118546425275
O            0.46318656439426        2.53901880757173       -0.00387962244272
N           -1.33824468092947        1.12142252799049       -0.03367237373680
C           -2.27524909872356        2.23293690882621       -0.05916511290936
C           -1.85760582569836       -0.12905092593815       -0.04829446408574
O           -3.05777658117569       -0.32504935283041       -0.06671073698070
N           -0.98482060726691       -1.24779778013604       -0.04546292761004
C           -1.58018952686152       -2.56091220209538       -0.04649820533713
H            3.69794401880544        1.19634550764921        1.06723794308918
H            3.96172134313068        1.00933376328206       -0.67941156529779
H            2.70903588404089        2.12174995296660       -0.07540907123186
H            3.54024820881904       -1.60071283340979        0.07206788237931
H           -1.70969220020668        3.16266412019915       -0.03836401172037
H           -2.88788565303946        2.18737187486117       -0.96142040678057
H           -2.94272714367820        2.18050143125781        0.80265154621081
H           -1.24273048229566       -3.10732962954570        0.83524244288675
H           -1.26235289952054       -3.09526882349421       -0.94241582746085
H           -2.66199197993429       -2.45449109428255       -0.03528207331394
H            2.52048029617982       -3.50577904655471       -0.11896194554787
25
 energy: 36.863364145506 xtb: 6.6.1 (8d0f1dd)
C            3.19962603443167        1.15100968991084        0.09178707511094
N            2.21827094520306        0.09763072269849        0.04911644934861
C            2.48969885648080       -1.23412534463067        0.05744028511047
N            1.48156688195397       -2.12832263252350        0.02554260850893
C            0.38120368626335       -1.15842325576502       -0.01719609403131
C            0.83515262711580        0.18045681898798        0.01451451857941
C            0.06808499499312        1.38519829891249       -0.00412461161256
O            0.45166068883573        2.54630993382053       -0.00315790057612
N           -1.34152889481212        1.13887527075942       -0.03515056097003
C           -2.27927250711308        2.24568328333036       -0.06013402253758
C           -1.86500339113875       -0.11783137431961       -0.04775875311696
O           -3.06440164934417       -0.30943979714473       -0.06746481464770
N           -0.99789004370878       -1.22871931628782       -0.03912688843676
C           -1.58635595303391       -2.54893977829538       -0.04417430358109
H            3.69385651637620        1.18558681305795        1.06616300483315
H            3.95565571802449        0.99552205168009       -0.67912555217081
H            2.71571689075127        2.11781473676832       -0.07612606814923
H            3.49157460528789       -1.60551906382798        0.07572969754799
H           -1.71592484561275        3.17609219545120       -0.04014567577180
H           -2.89130734149810        2.19530661276366       -0.96231640849057
H           -2.94605264386704        2.18956059906497        0.80170688484134
H           -1.24187742306265       -3.09459355729599        0.83449062409121
H           -1.26120564764017       -3.08112145809744       -0.93826442308547
H           -2.66856657499085       -2.45271241449425       -0.03381253637496
H            2.78953313804124       -3.65627043235187       -0.14137863827182
25
 energy: 25.103253515589 xtb: 6.6.1 (8d0f1dd)
C            3.20206465520023        1.14308655896705        0.09163072343876
N            2.21509091074193        0.08228472961814        0.04917360724442
C            2.42239017847711       -1.24055912192128        0.04828125403750
N            1.38518416490130       -2.04187827518775        0.01465936469483
C            0.34214762152518       -1.07858967983984        0.00397024819589
C            0.84443179127094        0.22074585945978        0.01242837370298
C            0.05725831853076        1.42486559259476       -0.01087653472265
O            0.44667383887598        2.56763458500814       -0.00086387032881
N           -1.31769867984865        1.13882306222058       -0.03554633481887
C           -2.26982967615002        2.23866032338939       -0.06006254702439
C           -1.86689198472153       -0.12938205035318       -0.04625778655168
O           -3.06642773583348       -0.29647595310172       -0.06984789586707
N           -1.00537357726176       -1.21871312666894       -0.02770582148525
C           -1.57308129495611       -2.55316615173782       -0.04432155319732
H            3.69278743563663        1.17976290408226        1.06594780219982
H            3.95846038790861        0.98941900708141       -0.67712463856690
H            2.71589918450282        2.10777329524660       -0.07902591582884
H            3.43182471569676       -1.63447756466374        0.07619568107860
H           -1.71518134289268        3.17408973986565       -0.04002210944215
H           -2.88262388553109        2.18687209119549       -0.96141957362146
H           -2.93767593523348        2.18020750961474        0.80066169172087
H           -1.23003810459659       -3.09666381630878        0.83410876313504
H           -1.24104865695583       -3.07958373281629       -0.93832517825546
H           -2.65713726219073       -2.46209407368795       -0.03854349725713
H            2.96100960083991       -3.81361310988468       -0.14008035633348
25
 energy: 21.336552298993 xtb: 6.6.1 (8d0f1dd)
C            3.20433903346431        1.14527413088197        0.08922002209159
N            2.22127326144772        0.07781263405763        0.04731504857598
C            2.39022853188437       -1.24759490209672        0.04483372369305
N            1.29311947680084       -1.97367468388278        0.01622761350289
C            0.31551487638141       -1.01569094955353        0.00516448630571
C            0.85630793838245        0.25637300709558        0.01470332447679
C            0.04411447145905        1.45552624138139       -0.00543145161053
O            0.44415846939166        2.59369135376009        0.00025428176328
N           -1.30565024181149        1.14140099574227       -0.03423560210127
C           -2.26891776657456        2.23813672849092       -0.05956484704997
C           -1.87399549135933       -0.13450126905674       -0.04812139208968
O           -3.07453448310549       -0.27472005488815       -0.07148816261225
N           -1.01743138973142       -1.21075879233573       -0.03103655939369
C           -1.56598377179780       -2.55367343832268       -0.04611049202948
H            3.69164882444087        1.17830301104073        1.06484018850470
H            3.96177024919838        0.98834167457161       -0.67759919324824
H            2.71342042324170        2.10565217644728       -0.08214596184163
H            3.40022723637258       -1.65209827706201        0.07050045953749
H           -1.71937320929312        3.17702601729629       -0.03818023792241
H           -2.88024076852918        2.18295248983947       -0.96131609346547
H           -2.93527007216438        2.17429127765543        0.80149401797048
H           -1.22016475277710       -3.09384488933217        0.83282611854605
H           -1.22861150608945       -3.07551557235964       -0.93967717932943
H           -2.65059669528802       -2.46711962618333       -0.04166420342727
H            3.11686202399225       -4.02656068101517       -0.12377401269946
25
 energy: 21.164425399335 xtb: 6.6.1 (8d0f1dd)
C            3.20544902388343        1.14792431197845        0.08928546281725
N            2.22246815206251        0.08310869383195        0.04722119470351
C            2.38259064213401       -1.25210347731015        0.04486289645582
N            1.24354033245181       -1.94010776635471        0.01468673010239
C            0.30630623685855       -0.97965589995074        0.00311614732599
C            0.86174764146541        0.28620954052903        0.01710693796854
C            0.03543002800930        1.47699016901939       -0.00561483113340
O            0.43903708799972        2.62058380925672       -0.00268324485816
N           -1.30672707738668        1.14895401378191       -0.03422957453473
C           -2.27410547039639        2.24232516952960       -0.05902272503743
C           -1.88308155912440       -0.12944880292409       -0.04655232959062
O           -3.08438347087274       -0.25698887003784       -0.07046766139333
N           -1.02746369875712       -1.20101924411286       -0.03232802828196
C           -1.55751012034672       -2.54938711723393       -0.04654129879543
H            3.69231053120899        1.17954169873695        1.06565186332832
H            3.96456600648575        0.98839608411640       -0.67615976859447
H            2.71338719468672        2.10628273652009       -0.08310653667587
H            3.38202010088666       -1.66397280916097        0.06655401560012
H           -1.72385706223936        3.18051068281590       -0.03827775729425
H           -2.88244437575517        2.18023337075422       -0.96137366451446
H           -2.93657308262679        2.17204381705176        0.80369156295106
H           -1.20961951173718       -3.08944547115177        0.83231114295535
H           -1.21442941458027       -3.07025086314700       -0.93898110438719
H           -2.64241395581713       -2.47228242939337       -0.04442534200922
H            3.20597048944335       -4.21941274497293       -0.11769019096053
25
 energy: 21.117591835000 xtb: 6.6.1 (8d0f1dd)
C            3.20491819086401        1.15217610319096        0.08903611464803
N            2.21892370828558        0.09443663321032        0.04701203987856
C            2.38955028255644       -1.24616633772743        0.04421620004799
N            1.23723429173318       -1.92542903450554        0.01405070962736
C            0.30765429440442       -0.96615508079264        0.00119069806961
C            0.86222379136909        0.30347758325427        0.01977159470952
C            0.03279970989621        1.48550573189051       -0.00419741719668
O            0.43396540628514        2.63493646487099       -0.00300982894557
N           -1.31054382303430        1.15275370594424       -0.03405765707055
C           -2.27671477622388        2.24536975615931       -0.05888941513593
C           -1.88759895718266       -0.12440620696549       -0.04661197563926
O           -3.08914423774033       -0.25158848217189       -0.07085680737334
N           -1.03078651948000       -1.19621288181451       -0.03223160485123
C           -1.55295971499747       -2.54508554237149       -0.04674039282668
H            3.69336928055281        1.18211683339280        1.06539641172917
H            3.96499539356224        0.99003854035196       -0.67599565488930
H            2.71467673727912        2.11093655799889       -0.08372772396946
H            3.37889447913402       -1.66099132565772        0.06395452313588
H           -1.72449959660674        3.18195316507105       -0.03746688840176
H           -2.88299118345196        2.18160457038382       -0.96183097098585
H           -2.93799309651097        2.17254592189334        0.80383461802775
H           -1.20627653924495       -3.08657705010763        0.83239330556316
H           -1.20835777655374       -3.06723537066563       -0.93861426480723
H           -2.63841683007663       -2.47259393065199       -0.04622338461693
H            3.21929215311760       -4.35638172200850       -0.11336833257998
25
 energy: 20.714838809718 xtb: 6.6.1 (8d0f1dd)
C            3.20654047931082        1.16029542704981        0.08993672952599
N            2.21423288754087        0.11482119026916        0.04764577224061
C            2.40664587095558       -1.22731427636453        0.04382669697035
N            1.25689446030698       -1.90958402466407        0.01139343279255
C            0.31434642426772       -0.96175939057334       -0.00042675863928
C            0.86049045126296        0.31631529478873        0.02179546253624
C            0.03379912080166        1.48872105021952       -0.00502549400056
O            0.42879414565572        2.64428188609046       -0.00457274654237
N           -1.31491626589926        1.15446620352773       -0.03431234039654
C           -2.27854569221768        2.24673100516518       -0.05889297959919
C           -1.88801694818118       -0.11901799000221       -0.04602265492605
O           -3.08985870870441       -0.25304295071716       -0.07033407190636
N           -1.02901437124332       -1.19448954273709       -0.03084478278486
C           -1.54908928661952       -2.54149574980520       -0.04668640639805
H            3.69606713879051        1.18644585090173        1.06655567412870
H            3.96671655741526        0.99255351082889       -0.67491988431231
H            2.72049341908966        2.12055556550720       -0.08362956995644
H            3.38503585809333       -1.64940243180202        0.06307651904848
H           -1.72533579289427        3.18250072350740       -0.03796732643672
H           -2.88466895245132        2.18238047053019       -0.96161889821147
H           -2.93895498609932        2.17364258289552        0.80416643428696
H           -1.20447799835075       -3.08563927362403        0.83249257763774
H           -1.20565216700640       -3.06578174605578       -0.93855225820720
H           -2.63547434459064       -2.47184445840887       -0.04663768682745
H            3.16616336870322       -4.49531032435518       -0.11341154387545
25
 energy: 20.202129874948 xtb: 6.6.1 (8d0f1dd)
C            3.20946364235669        1.17022780891922        0.08970673200924
N            2.21333925801358        0.13361279991492        0.04786636534151
C            2.42347303474213       -1.20454414848936        0.04375625376284
N            1.29228355861323       -1.89881948117545        0.01229791749945
C            0.32273282478337       -0.96890299699143       -0.00071165491184
C            0.85785081065798        0.31681042646846        0.02278691067417
C            0.03728666252649        1.48624310879721       -0.00366794841562
O            0.42606409058324        2.64407803302786       -0.00348565863466
N           -1.31744773992743        1.15410092277029       -0.03391314350538
C           -2.27908554393604        2.24635628626347       -0.05891945846143
C           -1.88312692882640       -0.11605660584723       -0.04676272074235
O           -3.08518081059136       -0.26051192556908       -0.07138019271028
N           -1.02193347326392       -1.19615106756968       -0.03031777554969
C           -1.54768258840289       -2.54045356292283       -0.04700666763534
H            3.69867522829788        1.19215841921065        1.06648874287101
H            3.96730583794934        0.99716528967991       -0.67617475647741
H            2.72592958330087        2.13129083792226       -0.08379685578159
H            3.39693702841611       -1.63765949616260        0.06298634234540
H           -1.72557531348551        3.18212860439980       -0.03726274955571
H           -2.88533377457939        2.18386005939122       -0.96206419642121
H           -2.94070688120459        2.17447432156698        0.80364957138179
H           -1.20525545791070       -3.08606321955197        0.83244385148066
H           -1.20648300251104       -3.06636039874330       -0.93902978195669
H           -2.63446190585624       -2.46937193566039       -0.04685426698432
H            3.07314652819083       -4.57858347747690       -0.11360096347527
25
 energy: 19.987751305333 xtb: 6.6.1 (8d0f1dd)
C            3.21182138171179        1.17552851002759        0.09051977129761
N            2.21643580538818        0.13941662560623        0.04792260819371
C            2.42814884470706       -1.19376005053918        0.04463839091493
N            1.31229562058324       -1.89647984343941        0.01259922393750
C            0.32627351355420       -0.97648256121671       -0.00082268537205
C            0.85667824507971        0.31062001065780        0.02078262990144
C            0.03942083463908        1.48361568010157       -0.00521488915774
O            0.42639147246492        2.63967140817602       -0.00472445922619
N           -1.31734630512486        1.15342230435652       -0.03411796285327
C           -2.27901829862366        2.24536092029459       -0.05892171176570
C           -1.87877099687753       -0.11634148507422       -0.04622823140152
O           -3.08078774749018       -0.26585080480070       -0.07016451120992
N           -1.01644727718463       -1.19770665851800       -0.03062481836968
C           -1.54813198070793       -2.54153659298513       -0.04676941735082
H            3.69926917352722        1.19485648350567        1.06771446999789
H            3.96820989702231        0.99994658287635       -0.67539957939303
H            2.72852132529336        2.13645197895195       -0.08302112798222
H            3.40303305563144       -1.63293545520173        0.06483460546906
H           -1.72574957117218        3.18159656137147       -0.03815336555687
H           -2.88648243866950        2.18324220794118       -0.96162704050454
H           -2.94048900833321        2.17477389292165        0.80422364982907
H           -1.20550496244540       -3.08698654595178        0.83246830838755
H           -1.20860467100791       -3.06737608155086       -0.93915981584630
H           -2.63466408535974       -2.46817871009928       -0.04551686043436
H            3.01771284133043       -4.58583977523959       -0.11820328535725
25
 energy: 19.945872992677 xtb: 6.6.1 (8d0f1dd)
C            3.21224605832587        1.17667454057818        0.08963471346195
N            2.21865884753691        0.13861726366175        0.04774382280238
C            2.42719276011595       -1.19214750562910        0.04536819282648
N            1.31648948519509       -1.89782552536840        0.01538021457858
C            0.32646660181073       -0.97925372296832       -0.00004504910616
C            0.85630069731735        0.30680353898568        0.02050393103260
C            0.03975727026807        1.48268362927269       -0.00368000765528
O            0.42734950920836        2.63707756483423       -0.00283065474774
N           -1.31677727780349        1.15324544627165       -0.03371084842980
C           -2.27873017458542        2.24513038191040       -0.05893631823095
C           -1.87760825689497       -0.11720892942754       -0.04675335805080
O           -3.07951980554770       -0.26684034851800       -0.07118140434394
N           -1.01502346856864       -1.19787907367353       -0.03108219094047
C           -1.54888315027295       -2.54231050871519       -0.04696801920237
H            3.69965517440107        1.19553471546892        1.06658053805951
H            3.96758995364332        1.00068738570255       -0.67688217097587
H            2.72768450336522        2.13673190579417       -0.08360717608855
H            3.40421155006108       -1.63162161051460        0.06491777122529
H           -1.72553395478521        3.18147731708319       -0.03732938447987
H           -2.88555697776626        2.18358545744242       -0.96216476019540
H           -2.94101374502013        2.17446726333810        0.80363659648031
H           -1.20631729702089       -3.08711415096787        0.83235362659504
H           -1.20897888957627       -3.06766330814383       -0.93927179303048
H           -2.63507747611178       -2.46789964951719       -0.04603395135745
H            3.00763273064094       -4.57592347472838       -0.11860842407972
25
 energy: 19.938536660643 xtb: 6.6.1 (8d0f1dd)
C            3.21246155667342        1.17663875647926        0.09033850765022
N            2.21951175244518        0.13782542218057        0.04749374574418
C            2.42614518743691       -1.19230170677557        0.04558275375570
N            1.31616104041366       -1.89829202820595        0.01520012689845
C            0.32607797992189       -0.97918582725244       -0.00031774844780
C            0.85617028769068        0.30613952664528        0.01920109735479
C            0.03955666145607        1.48289226123972       -0.00524959688215
O            0.42763599183405        2.63677167950705       -0.00431012575250
N           -1.31653993384549        1.15333890496244       -0.03414548540206
C           -2.27878694209453        2.24506252591763       -0.05890276022026
C           -1.87768518135014       -0.11764994760064       -0.04626659767202
O           -3.07954163079239       -0.26657116782704       -0.07008166040610
N           -1.01506167459518       -1.19753730087598       -0.03115264112734
C           -1.54899123633465       -2.54257723874522       -0.04665062661260
H            3.69918862719057        1.19507327551580        1.06758692161935
H            3.96830969649391        1.00075551242065       -0.67563165216000
H            2.72780988604446        2.13655580219743       -0.08296460695562
H            3.40391972817416       -1.63145069945379        0.06559284686096
H           -1.72568979199036        3.18149069208551       -0.03806749836125
H           -2.88627294784276        2.18306214404696       -0.96163277742769
H           -2.94034304407143        2.17457235768570        0.80421652906612
H           -1.20570268436617       -3.08707839883175        0.83249917985928
H           -1.20924578431262       -3.06760796710940       -0.93911622846780
H           -2.63507652665674       -2.46813292868160       -0.04523950566009
H            3.00820365041372       -4.57276504735258       -0.12094830110650
25
 energy: 19.935735733930 xtb: 6.6.1 (8d0f1dd)
C            3.21238192213328        1.17664301050124        0.08954447036802
N            2.21987088473434        0.13740972470656        0.04736005751973
C            2.42560888534265       -1.19252019727133        0.04605578865227
N            1.31568904319828       -1.89859887969292        0.01692870548737
C            0.32587670662090       -0.97884300104573        0.00027703517086
C            0.85603101087807        0.30608875629811        0.01962044882138
C            0.03935002913941        1.48308647010676       -0.00390811550598
O            0.42780522046220        2.63679293114893       -0.00278442807038
N           -1.31639788068124        1.15342590157364       -0.03377646558704
C           -2.27872562421749        2.24511668076376       -0.05892557678593
C           -1.87785639904202       -0.11798334670967       -0.04657026791242
O           -3.07968234242183       -0.26618601039472       -0.07097837107191
N           -1.01525509606501       -1.19726861975647       -0.03108224941347
C           -1.54904581912429       -2.54267478071015       -0.04688603578763
H            3.69963892284404        1.19535712310723        1.06652714196114
H            3.96788096577242        1.00077254822081       -0.67685236530344
H            2.72734178100659        2.13628399264821       -0.08364568746930
H            3.40367201741565       -1.63138635484270        0.06553029860385
H           -1.72562897464359        3.18151491182557       -0.03742205692276
H           -2.88552618900886        2.18334979696380       -0.96210713335153
H           -2.94086774652600        2.17435470808207        0.80369408657183
H           -1.20604353409011       -3.08705736598732        0.83232527884992
H           -1.20880036058864       -3.06748279416344       -0.93926408324475
H           -2.63505693865583       -2.46816185854588       -0.04596164190675
H            3.00995418345331       -4.57300474465427       -0.12066493752584
