25
 energy: 55.063323517542 xtb: 6.6.1 (8d0f1dd)
C            3.60308647341315        0.89047255099564        0.11355774843079
N            2.60687751810840       -0.14907200137292        0.03760613947360
C            2.84054901626884       -1.44766798185665       -0.02825987540822
N            1.67228199209179       -2.13205526475297       -0.05279233083620
C            0.64695658940884       -1.20816951304421        0.00424100238914
C            1.25118640303066        0.04439687599408        0.06906113124073
C            0.43334687443007        1.28321020316697        0.08304095394051
O            0.96051237658989        2.38426266960666        0.10751784858272
N           -0.88976942040641        1.04369676542548        0.07460440646386
C           -3.81316552483475        3.05934845622618       -0.17385661650791
C           -1.53097414921680       -0.08314242742308        0.03666755425527
O           -2.70710314516796       -0.31654134750992        0.02042401368147
N           -0.65391360359605       -1.39940309582032        0.00100725052654
C           -1.27933308823591       -2.69383990467231       -0.03475998574644
H            4.01439852846165        0.94223152045890        1.12454363865644
H            4.41431244050054        0.68494158213170       -0.58546510048591
H            3.12564178360522        1.84560968086351       -0.11792941232091
H            3.80494397597720       -1.90266733210555       -0.06332574140299
H           -3.12344155852824        3.87680295120616       -0.15512199592332
H           -4.19596117678943        2.71040396334643       -1.11038790198636
H           -4.29333962331805        2.74890095933684        0.72996465371760
H           -1.00216030837259       -3.30404214438797        0.83107185971859
H           -1.03829780095714       -3.23887730027795       -0.95333726159982
H           -2.35147208538473       -2.50693243453704       -0.00669354728654
H            1.57534913434773       -3.13393340600054       -0.11055047984985
