25
 energy: 54.670590102919 xtb: 6.6.1 (8d0f1dd)
C            3.59539406579005        0.88972223486584        0.11146928213300
N            2.60743077887805       -0.15416308138131        0.03497343216609
C            2.84268117433511       -1.45126588287800       -0.02647781292586
N            1.67279925724089       -2.13110068184181       -0.04948550633462
C            0.65160914213041       -1.21339861588484        0.00322598734151
C            1.25433479671015        0.04073232262267        0.05675274677436
C            0.42381645163733        1.27438963661130        0.08003488661291
O            0.94117147191727        2.38066846789051        0.11151122603004
N           -0.90225006572980        1.03885439762684        0.06189706854806
C           -3.82197593279637        3.07426828363714       -0.17071105450619
C           -1.52641537068730       -0.10129182321466        0.03449648871711
O           -2.70274213678828       -0.33456203298646        0.01949619582204
N           -0.65162461195269       -1.40349556429556       -0.00020203185863
C           -1.28771019344833       -2.69445560036284       -0.03721368313400
H            4.00679972067649        0.95234974530833        1.11944656675154
H            4.40545859887453        0.70761403332912       -0.59463519656146
H            3.09529302358844        1.83476696903998       -0.11258916749288
H            3.80680532625626       -1.90373549752734       -0.06161871939214
H           -3.17830546850014        3.92152104545332       -0.15462357208450
H           -4.12316746248544        2.66883636837763       -1.10863855302925
H           -4.23121491367310        2.70669003441921        0.74288080454632
H           -1.01176003393829       -3.29488400054026        0.83380241633088
H           -1.04667826860870       -3.23653324379233       -0.95657124930959
H           -2.36267214590431       -2.50642007539569       -0.01018472410109
H            1.57529361506238       -3.13178773259875       -0.09589245674044
