25
 energy: 33.779714982665 xtb: 6.6.1 (8d0f1dd)
C            3.41376035988390        1.07299543280778        0.10736925673698
N            2.42158007090294        0.05396136951909        0.00618986214108
C            2.68412060286543       -1.30927855786195       -0.00619735512094
N            1.48320462000469       -1.96783570001384       -0.05265379332878
C            0.49316103556328       -1.04561708210714       -0.02539235933949
C            1.01566148346341        0.24202391226817        0.02199876734197
C            0.19632476033263        1.43391488544623        0.03949119353882
O            0.65035406353017        2.56979324556405        0.11479775822241
N           -1.36753179124538        1.22674843839880       -0.02437642357282
C           -2.70129171463959        2.26887460235248       -0.12345739388726
C           -1.78177596490686       -0.07271988918955        0.00466133702673
O           -2.95177826612409       -0.39442237891323        0.03608403640961
N           -0.85440974502381       -1.20216246297726       -0.01031673183294
C           -1.37874684453202       -2.56663209786348       -0.03357770238108
H            3.86711937254041        1.10546813741837        1.10226136436461
H            4.20309466560728        0.88668886645913       -0.62711133466795
H            2.94947042636001        2.03238342618551       -0.07848446802400
H            3.63531559695673       -1.78902766104325       -0.05497760810222
H           -2.29343743167615        3.28108615943048       -0.11985242723956
H           -3.32470815087237        2.12314039936184       -1.01827190304315
H           -3.40676713221062        2.17243032104165        0.70559156247766
H           -1.03204448725905       -3.14197629858825        0.83308816909064
H           -1.05849706254823       -3.09442222747982       -0.93922330556265
H           -2.46577029333821       -2.52095367900536       -0.01644326800529
H            1.41521371649620       -2.97287413776438       -0.11019114118621
