25
 energy: 0.932605741130 xtb: 6.6.1 (8d0f1dd)
C            3.31805974462865        1.13614637352696        0.09524709113299
N            2.35041512659444        0.09179787101196        0.02833249562498
C            2.62990053705353       -1.26720518640841        0.01611392970489
N            1.43306975941989       -1.94685530893235       -0.03309022625319
C            0.43451141316105       -1.03939059418750       -0.00737227095102
C            0.95120946987636        0.25019275292612        0.03164437315329
C            0.12303898685409        1.41801187441553        0.03488059418122
O            0.53592129743911        2.57969012935439        0.05712823086660
N           -1.33728766234914        1.13504238822780       -0.01294127495285
C           -2.42030801463658        2.18514160167986       -0.08048590023741
C           -1.81089041204796       -0.14629611155960       -0.01393945898044
O           -2.99933491988046       -0.40063679245923       -0.02272371569560
N           -0.90946149898509       -1.24797356613778       -0.01357206513856
C           -1.43186739635114       -2.60529505135837       -0.04944026649301
H            3.78783319093337        1.17864715116550        1.08250116706688
H            4.09643826011038        0.97908238606667       -0.65730381899525
H            2.80637649211590        2.07476304140549       -0.08616464739123
H            3.59923122563598       -1.70984058552796        0.01736182247612
H           -1.93713735629891        3.16368010548992       -0.06261040997900
H           -3.03977972856011        2.09713468951501       -0.97724209853662
H           -3.10587840876046        2.11540065634548        0.76620234000661
H           -1.11159699942541       -3.17276670691503        0.83008448133234
H           -1.10485008995613       -3.13801937638956       -0.94866719503548
H           -2.51807187110901       -2.53374807195825       -0.05409164403565
H            1.34877777150923       -2.95194721986493       -0.06648409289991
