25
 energy: 53.395886845084 xtb: 6.6.1 (8d0f1dd)
C            3.43809671282548        1.05377217592066        0.11042493269668
N            2.44809956751412        0.02702355891909        0.00924913223516
C            2.70611219970970       -1.31414542947573        0.00473413013266
N            1.51129472353279       -1.98657797268250       -0.05002662588226
C            0.51320335396471       -1.05608883797783       -0.02313324584824
C            1.06277350535354        0.21114352864960        0.02010741533306
C            0.20316865756515        1.41978903681193        0.04817724912396
O            0.68784500053115        2.53945262880370        0.12130614513255
N           -1.21269084753063        1.17985325400589        0.00117235628197
C           -2.92767560168520        2.39710776631868       -0.13890953507998
C           -1.73122297821286       -0.05748244435073        0.01129692832458
O           -2.90156269395683       -0.36759865664441        0.04010460289334
N           -0.81579419349858       -1.22417353906161       -0.01029384986707
C           -1.36051931295902       -2.57280036166167       -0.02961268368566
H            3.88424328575502        1.08512186019116        1.10708236915508
H            4.22926339663080        0.86083083917816       -0.61838683987940
H            2.98191952100924        2.01666258029206       -0.07766832800151
H            3.65064242793685       -1.80305496654328       -0.07707795223575
H           -2.40022922521009        3.33310013321481       -0.13234969444945
H           -3.45303496951934        2.15682373849875       -1.04382556815676
H           -3.53783932166908        2.20605820740518        0.71693338189257
H           -1.01276712164759       -3.14547029624133        0.83607212577334
H           -1.04771248716404       -3.09317647727808       -0.93941173741560
H           -2.44876112018098       -2.51793702802893       -0.00636854168532
H            1.43847332840605       -2.98868918223903       -0.10042879248420
