72
 energy: -99.338090341843 gnorm: 0.004817003349 xtb: 6.6.1 (8d0f1dd)
N           -2.62768611121720        2.58330754573765        2.35976878752206
C           -2.00787758867235        2.10988540762382        1.29158309661030
C           -2.97563667077207        1.82098816968761        0.19118101879013
C           -3.43379239374364        0.36436178075533        0.23623832999691
C           -4.41191716043257       -0.07403865537983       -0.65844791922631
C           -4.88034891163301       -1.37640710971987       -0.62943372909958
O           -5.81830187618710       -1.88799248020007       -1.45292849126735
C           -6.43675269091632       -1.04988094261993       -2.40034260888687
C           -4.36226611568178       -2.28460223947371        0.33299947002307
O           -4.88929079509734       -3.52544292689407        0.30102222424557
C           -4.50409774793318       -4.45624044007072        1.28570132342175
C           -3.38452969614630       -1.84331129610281        1.20821479589782
C           -2.92429577830461       -0.53224493408816        1.15788695647150
C           -2.41496775510874        2.16619002859819       -1.20097308559252
C           -1.43075582716010        1.12147396428832       -1.75393028930419
C           -0.12765348293236        1.10537672859307       -1.05544857694995
N            0.51212858308733        0.01545094204753       -0.63432531656935
C            1.89121518934742        0.09596746349113       -0.21521766408068
C            2.85597655776447       -0.31232196887000       -1.34694486926109
C            4.28071146986503       -0.12314728102340       -0.90823834593296
C            4.93083364100920        1.08055287670731       -1.12128230314246
C            6.23850223115709        1.26579373669740       -0.69882306740085
C            6.92090232028850        0.24891882182189       -0.04797856193195
O            8.18869414618026        0.31683618117074        0.40339172346275
C            8.92563058576553        1.50023234769693        0.20027434986596
C            6.26101290387870       -0.98960235522137        0.17816830337016
O            6.99885772326941       -1.92473413566974        0.81258499911891
C            6.44388746046098       -3.19635604834310        1.04690271006782
C            4.95403604820071       -1.15139702240429       -0.25176090696853
C           -0.04611644817239       -1.30594676772327       -0.78822729582224
C           -4.18182253645517        2.72540627815881        0.63116252914040
C           -4.04505922071324        2.73547298537089        2.16314195608366
C           -4.11539171535385        4.15222525938958        0.09712932890104
H           -4.81529173986347        0.61797640012793       -1.37958075052526
H           -6.95056407822845       -0.21106015046003       -1.92083930561653
H           -7.16822433026205       -1.67521920321917       -2.90836570924121
H           -5.71705032808839       -0.66997632088064       -3.13278967511131
H           -4.71374703470080       -4.08346249452968        2.29290388953146
H           -5.10380186556199       -5.34472792892105        1.09833145452942
H           -3.44297841812034       -4.71281148331507        1.20365503016245
H           -2.97368594543858       -2.51072096438728        1.94807284205828
H           -2.16674138274956       -0.21918833438429        1.86111723648843
H           -3.24688590148718        2.23928094596285       -1.90026893133731
H           -1.92331375703222        3.13802794421701       -1.16165586608076
H           -1.90118965394624        0.14038059917878       -1.74938115366191
H           -1.24312154782193        1.39372842480001       -2.80113210347641
H           -0.94262788535252        1.98086251328497        1.25537616138907
H            0.38992624559945        2.04404680704609       -0.93475967957543
H            2.04375262513290       -0.55933616848200        0.64643161731210
H            2.11829456312157        1.11985086107741        0.08816412152855
H            2.65046930695214        0.30982001335032       -2.21976675244581
H            2.68192100370436       -1.35467803905949       -1.61618448825557
H            4.42517768429351        1.88466946311980       -1.63419493376449
H            6.72107320863862        2.21043100775092       -0.88838311468487
H            8.46133223393970        2.35336583394190        0.70455962366750
H            9.04024387405834        1.72298087745622       -0.86485351849946
H            9.90472804476495        1.31287214358987        0.63687623037989
H            7.22483186183903       -3.76871022577924        1.54379353507927
H            5.56767367961025       -3.13849114964185        1.70096627088091
H            6.17076843768203       -3.69417222928380        0.11114473582623
H            4.44738070158285       -2.09061564005272       -0.09320390213568
H           -0.08625124876319       -1.60320668380004       -1.83895508219281
H           -1.05537713518529       -1.34186773764967       -0.37410020037837
H            0.57305817615461       -2.01943336032213       -0.25004766456898
H           -5.12717062212347        2.27557297575913        0.32966005082731
H           -4.82105932141524        4.99240667591758        3.76679707433820
H           -4.58053896722312        1.90001842255837        2.62597955109760
H           -4.40173345475995        3.67200735044080        2.64492263192938
H           -3.17391144211868        4.62650851639592        0.36274394314199
H           -4.23341614819314        4.18220481812257       -0.98188830503143
H           -4.92173143475487        4.73452829339242        0.53592395741561
H           -2.18753074454567        2.83550283515553        3.23114715006981
