  25
        -42.15306309
 C          3.1889670915        0.6495501695        0.0095570468
 N          2.0270778818       -0.1964739114        0.0084143935
 C          2.0573832528       -1.5255215791        0.1202258360
 N          0.8058976030       -2.0050685309        0.0256775682
 C         -0.0536534961       -0.9436311453       -0.1582643144
 C          0.7209864768        0.2105271583       -0.1579827592
 C          0.3094471443        1.6434520502       -0.1743277453
 O          1.1168274256        2.5171681350        0.1621114086
 N         -0.9471644086        1.8273984355       -0.5327700345
 C         -1.5261440916        3.1168516489       -0.5635143301
 C         -2.0047374616       -1.6529574033        0.8575112840
 O         -1.9629722650       -2.1743416949        1.9049429371
 N         -1.4485305728       -1.1449999228       -0.1931012513
 C         -2.2137705045       -0.6982803877       -1.3529276648
 H          2.9547680395        1.5863610647        0.5185238567
 H          4.0126600963        0.1408291764        0.5054800905
 H          3.4781687185        0.8924324507       -1.0153589576
 H          2.9376449189       -2.1164694717        0.2705063739
 H         -0.9526187414        3.8403248933        0.0282381747
 H         -1.5785542057        3.4773163490       -1.5973854007
 H         -2.5478110534        3.0499325469       -0.1805592278
 H         -1.9184077408       -1.2739293513       -2.2300823062
 H         -2.0015154700        0.3621749156       -1.5132609177
 H         -3.2729041025       -0.8454135969       -1.1614126834
 H          0.5415217010       -2.9775788917        0.0950033256
