25
 energy: 0.000000000000 xtb: 6.6.1 (8d0f1dd)
C            3.23720163006194        1.16630919979326        0.08434469647475
N            2.29877817382611        0.07527477071623        0.03981603040599
C            2.58028210190900       -1.21425402444508        0.03006176031096
N            1.43813958087363       -1.93419271955128        0.00098261760884
C            0.39035688448383       -1.05887472636071       -0.00790371836672
C            0.93510056364412        0.21347819449412        0.01709077491437
C            0.09450143893243        1.40504303904423       -0.00410947031874
O            0.49712751527797        2.54126714362870       -0.00342325688240
N           -1.25076640035757        1.06271879480407       -0.03085478223738
C           -2.21907211982101        2.15522099834493       -0.05001256985998
C           -1.81739487048744       -0.20012725993278       -0.04692818574614
O           -2.99983886758376       -0.37846417018721       -0.07008878229737
N           -0.92618586207120       -1.30210215599479       -0.03682761578324
C           -1.46982264913417       -2.64643102187190       -0.06029820460571
H            3.71247264356769        1.21471455160235        1.06488849150277
H            4.00791497605742        1.03430808813993       -0.67357694370751
H            2.69910007168542        2.09770118228144       -0.09130154882931
H            3.56654120610678       -1.63682992603973        0.04233140067262
H           -1.67107961066214        3.09322851271934       -0.02552706933167
H           -2.82428953597071        2.09428624779827       -0.95318082946668
H           -2.87644029173232        2.07745725625962        0.81450067533302
H           -1.17061996399332       -3.19584890659852        0.83242232437030
H           -1.14560257411436       -3.17511610292205       -0.95688275822323
H           -2.55549792440841       -2.55659984320617       -0.07459039797972
H            1.38130855184625       -2.94313852034425       -0.01389874181052
25
 energy: -2.687825125414 xtb: 6.6.1 (8d0f1dd)
C            3.23155724817212        1.17869578023522        0.08610772959852
N            2.29675457012537        0.09224458843563        0.03895054093208
C            2.59871118557898       -1.23427389315080        0.03203657393526
N            1.45327525678028       -1.98278539015235        0.00193457602726
C            0.40273412877500       -1.08438596672024       -0.00812966221015
C            0.92100322519944        0.20946252971334        0.01601033282980
C            0.09564067768716        1.39495599806407       -0.00502382269596
O            0.49439631220469        2.56100377330935       -0.00319605920742
N           -1.26726916610141        1.06047438643566       -0.03221450369659
C           -2.22729744656004        2.16246573251550       -0.05136099730895
C           -1.82497196310610       -0.19295581888168       -0.04854831411727
O           -3.02247105813536       -0.37146344408113       -0.07244924626471
N           -0.93538178288189       -1.30146858434438       -0.03748601745842
C           -1.48340939055948       -2.63408131871683       -0.06003705093733
H            3.72366413390924        1.21545156332194        1.06195743679429
H            3.99192175162934        1.04936201788481       -0.68586282650346
H            2.69164565560364        2.11041715690905       -0.07488240737163
H            3.57905628622285       -1.64422686540219        0.04747291639263
H           -1.66995536663956        3.09700166699953       -0.02757577878740
H           -2.83622480436981        2.11379029776966       -0.95414919203315
H           -2.88779664158711        2.09802650034528        0.81322407543177
H           -1.17387809638754       -3.18009738034107        0.83218780336362
H           -1.15204566360827       -3.15932733024297       -0.95693956226065
H           -2.56830289994242       -2.53749044259723       -0.07233861597514
H            1.48085851592707       -3.03176695513618       -0.01265403232975
25
 energy: 4.044824042900 xtb: 6.6.1 (8d0f1dd)
C            3.22196311056724        1.18655646027767        0.08745526318974
N            2.28910454123101        0.10383004140786        0.03751855236388
C            2.61140582043206       -1.24829660378688        0.03610706451604
N            1.47076486055989       -2.03467803138207        0.00419638396356
C            0.41435165965332       -1.12051773191807       -0.00851549192375
C            0.90148444904777        0.19392561399558        0.01425293132573
C            0.09618283088797        1.37138864780069       -0.00610816360190
O            0.48625270996588        2.55388623540873       -0.00219372097882
N           -1.28978361252543        1.06297666642211       -0.03461522948975
C           -2.23647903223106        2.17776844827586       -0.05373638660668
C           -1.82982442176638       -0.18070123785812       -0.05113824453712
O           -3.03384301048005       -0.36405222832129       -0.07632836467686
N           -0.94632611307463       -1.29552776614995       -0.03849879417108
C           -1.50388156317557       -2.61632930470752       -0.05962887141470
H            3.74093267197782        1.20944150966032        1.05290063435452
H            3.96620298957008        1.07402975335735       -0.70616713630567
H            2.67940323130373        2.12197558651375       -0.04552075860811
H            3.59118386170200       -1.63998951019250        0.05702221257808
H           -1.66659097519958        3.10650689541455       -0.03106296975800
H           -2.85012716030047        2.14198310545891       -0.95533171035407
H           -2.90049572279885        2.12807897281742        0.81058350437597
H           -1.18488800089338       -3.16159728643126        0.83051512760022
H           -1.16881399181928       -3.14079538010403       -0.95635150025882
H           -2.58786669859007       -2.51411216154681       -0.06853215713868
H            1.64190223389220       -3.12672209224029       -0.00978827829646
25
 energy: 9.171573962150 xtb: 6.6.1 (8d0f1dd)
C            3.21497622171864        1.18819705429016        0.08741478330750
N            2.28633966745780        0.10200797303536        0.03768029342969
C            2.61445377312345       -1.25211126957571        0.03917270487383
N            1.48180544562306       -2.05538270099794        0.00617427151009
C            0.42006804202382       -1.14030795498918       -0.00877773289177
C            0.89577698005346        0.18022209602412        0.01385959533360
C            0.09654548249283        1.35881688064442       -0.00618045694294
O            0.48414500699809        2.54025568074126       -0.00085920601351
N           -1.29955973586101        1.06837305434539       -0.03658404914563
C           -2.24001030637708        2.18809891409452       -0.05604881652147
C           -1.83090319847902       -0.17586729640470       -0.05328436336129
O           -3.03375252484074       -0.36617870008532       -0.07971896496564
N           -0.94797149679312       -1.29176370730517       -0.03924152471190
C           -1.51654850009905       -2.60822229238110       -0.05924367120457
H            3.75320087113689        1.19983850105582        1.04287194821085
H            3.94430811424286        1.09581728927813       -0.72366047260464
H            2.66698115595354        2.12575590813643       -0.01946914596278
H            3.59944612181281       -1.63344139046642        0.06526654760920
H           -1.66490083392549        3.11351645671169       -0.03433077995126
H           -2.85588306522643        2.15731367900218       -0.95658103568392
H           -2.90519100983900        2.14510039309926        0.80805323806552
H           -1.19637350768912       -3.15434454351265        0.82965967820320
H           -1.18553849447344       -3.13352833560009       -0.95675526462499
H           -2.60019405629663       -2.50099767798759       -0.06507102022324
H            1.73099451519909       -3.16213940898079       -0.00731265958668
25
 energy: 10.346493779288 xtb: 6.6.1 (8d0f1dd)
C            3.21213701886604        1.18754725182165        0.08709056950709
N            2.28675844468972        0.09752491916946        0.03871932058126
C            2.61292242276997       -1.25190003362639        0.04111188468987
N            1.48492585384248       -2.05846399310086        0.00734878188020
C            0.42128553617042       -1.14586136417526       -0.00908523088223
C            0.89665981476052        0.17414488806257        0.01352043325648
C            0.09712859970325        1.35579018994799       -0.00615512314790
O            0.48521378237883        2.53317049518770        0.00063753478930
N           -1.30091564735783        1.07174934199997       -0.03785068525012
C           -2.24008784814727        2.19140744115005       -0.05739071782908
C           -1.83106380102158       -0.17490179400186       -0.05473582105881
O           -3.03174450231629       -0.36893634894172       -0.08176989975063
N           -0.94667143873790       -1.28984986689020       -0.03979442833035
C           -1.52074664214538       -2.60635026649496       -0.05899976102381
H            3.76062268009343        1.19234064508619        1.03570683679788
H            3.93147383101031        1.10819268958951       -0.73366372125597
H            2.65961766428882        2.12453557984502       -0.00447809172533
H            3.60108902292192       -1.62936091433573        0.07084011789695
H           -1.66465462489987        3.11618734171967       -0.03630270903512
H           -2.85645120245272        2.16078633644213       -0.95750661114901
H           -2.90495551299744        2.14958510330464        0.80693823713543
H           -1.20119582126909       -3.15312646735885        0.82930637680669
H           -1.19381180349180       -3.13221445785866       -0.95734091966063
H           -2.60419457275781       -2.49692164264272       -0.06290354350718
H            1.75887341403544       -3.16604647172731       -0.00620893358771
25
 energy: 10.171355404732 xtb: 6.6.1 (8d0f1dd)
C            3.21121465186270        1.18682284679008        0.08679498086675
N            2.28769033035359        0.09436174886428        0.03999468666191
C            2.61072432831198       -1.25109277092067        0.04261735822564
N            1.48463077932065       -2.05725688723346        0.00815405025507
C            0.42072497740478       -1.14656312323645       -0.00950930361735
C            0.89817516471728        0.17213156595601        0.01282469009284
C            0.09762518358044        1.35549118380002       -0.00620068587382
O            0.48662618352570        2.53068863217760        0.00214285936299
N           -1.29991435737460        1.07269592678279       -0.03874904272003
C           -2.23911167404817        2.19156241313057       -0.05810457490028
C           -1.83136064250850       -0.17490274609041       -0.05570692316594
O           -3.03077266128888       -0.36978173276392       -0.08303126309776
N           -0.94585198929367       -1.28904211588560       -0.04033014270541
C           -1.52148726887515       -2.60641295513731       -0.05893541575865
H            3.76605218501724        1.18717132954530        1.03065384527856
H            3.92381675560409        1.11460521928474       -0.73944831606133
H            2.65586511757339        2.12246845206594        0.00397049261572
H            3.60007748530998       -1.62736565715333        0.07494620579826
H           -1.66451356218165        3.11671639578136       -0.03741601384810
H           -2.85574867601877        2.16034794842334       -0.95800821671041
H           -2.90354901496746        2.14968806763053        0.80656031887585
H           -1.20160952221141       -3.15310029904503        0.82903282644874
H           -1.19649191472217       -3.13211247241140       -0.95783332410611
H           -2.60479669932288       -2.49650147287065       -0.06162252027351
H            1.76419950816768       -3.16159089531230       -0.00576267549635
25
 energy: 9.856234943605 xtb: 6.6.1 (8d0f1dd)
C            3.21117643967862        1.18668563523734        0.08660236463922
N            2.28813482512951        0.09352744336360        0.04094628778632
C            2.60977745363277       -1.25094612626766        0.04347661486459
N            1.48372582027728       -2.05660732767305        0.00859955649001
C            0.42015004638106       -1.14619211202510       -0.00987238473585
C            0.89863042477578        0.17218795364357        0.01219211850286
C            0.09781460054529        1.35560866557345       -0.00619287812021
O            0.48722835709281        2.53078269366486        0.00304497972283
N           -1.29916353667315        1.07236216272869       -0.03923564703532
C           -2.23846139353372        2.19102405140403       -0.05837753047885
C           -1.83162067843371       -0.17495013351014       -0.05613531618509
O           -3.03086550281051       -0.36944346043201       -0.08352203816419
N           -0.94588127118331       -1.28895633274671       -0.04071415512609
C           -1.52118693977848       -2.60674816000591       -0.05898760570387
H            3.76911911964615        1.18488067593628        1.02820874237911
H            3.92064321513515        1.11679011463481       -0.74208772293660
H            2.65472908980708        2.12158719313630        0.00749865139786
H            3.59915159707651       -1.62723078799809        0.07712450721512
H           -1.66427654530509        3.11650236612847       -0.03783661302184
H           -2.85532733537436        2.15959233999735       -0.95816189554360
H           -2.90272111505668        2.14908831367980        0.80648095525513
H           -1.20057434009316       -3.15315292346384        0.82882364955757
H           -1.19643981467583       -3.13220405252197       -0.95805453366606
H           -2.60445304307948       -2.49705952986020       -0.06114433557099
H            1.76290519475564       -3.15810006045184       -0.00564187537476
25
 energy: 9.602059015721 xtb: 6.6.1 (8d0f1dd)
C            3.21125699818200        1.18673041265611        0.08640146805178
N            2.28836398659619        0.09330057436540        0.04207133123769
C            2.60932382515479       -1.25114632821261        0.04426185243490
N            1.48294253592264       -2.05662498161960        0.00900595585249
C            0.41980034313771       -1.14590266953903       -0.01030082706130
C            0.89869320034359        0.17256112149258        0.01152178539230
C            0.09789380780627        1.35559238874829       -0.00611924234002
O            0.48746862334398        2.53120516114709        0.00380931190602
N           -1.29875325008015        1.07189418737845       -0.03969944570734
C           -2.23805237484469        2.19062294095866       -0.05859619084302
C           -1.83180542304730       -0.17492823922045       -0.05645690719894
O           -3.03114244139431       -0.36902178235700       -0.08379053101380
N           -0.94608258591644       -1.28902243109315       -0.04113564134966
C           -1.52087726971072       -2.60698915140513       -0.05908276718530
H            3.77195758774364        1.18317670052541        1.02610324549845
H            3.91813261689839        1.11839743673117       -0.74442303247757
H            2.65407519397642        2.12115794795114        0.01041102622280
H            3.59852396442419       -1.62762775568536        0.07912024827461
H           -1.66397053274450        3.11624461277879       -0.03816019828477
H           -2.85515052018266        2.15913391299802       -0.95825021714587
H           -2.90217304010788        2.14871818014918        0.80642051885649
H           -1.19955510146726       -3.15315282867394        0.82861436186308
H           -1.19614100543019       -3.13234246352648       -0.95821375888373
H           -2.60413458062811       -2.49757419659443       -0.06084402879256
H            1.76162010996060       -3.15537414778103       -0.00563442115942
25
 energy: 9.517042129321 xtb: 6.6.1 (8d0f1dd)
C            3.21134421030054        1.18681766476647        0.08627018382395
N            2.28830249668889        0.09350178364473        0.04313364897522
C            2.60942408619673       -1.25147408696934        0.04465284311153
N            1.48271035508741       -2.05714011999087        0.00920545051501
C            0.41985271211682       -1.14587451189043       -0.01067195151132
C            0.89850339182035        0.17282851924936        0.01109721130005
C            0.09785592901730        1.35545917382243       -0.00601466362172
O            0.48729823815998        2.53141871474811        0.00413917303754
N           -1.29884561809756        1.07170439709029       -0.04000055339723
C           -2.23806678487863        2.19063428669723       -0.05869574927124
C           -1.83179564561853       -0.17488955246899       -0.05656641833175
O           -3.03127741117759       -0.36896564495103       -0.08370544071729
N           -0.94620551503532       -1.28915875099024       -0.04147382782832
C           -1.52080219901224       -2.60701740754073       -0.05918476759558
H            3.77353423139218        1.18261031144146        1.02497971503036
H            3.91693262900910        1.11901720724037       -0.74568477232852
H            2.65403105892500        2.12120454023862        0.01176626592013
H            3.59845594520771       -1.62813977208851        0.08031512276982
H           -1.66376576072862        3.11613001921297       -0.03830166108594
H           -2.85527537845814        2.15920124422759       -0.95825966518294
H           -2.90208032860369        2.14878793879678        0.80640215145208
H           -1.19927045854308       -3.15312114434145        0.82850812944201
H           -1.19608461674715       -3.13251494951545       -0.95827854166394
H           -2.60408043349599       -2.49768373525609       -0.06081489172223
H            1.76151953441071       -3.15430752300123       -0.00578309497239
