25
 energy: -4.914753127437 xtb: 6.6.1 (8d0f1dd)
C            3.22111798700296        1.18448225612599        0.08735045756057
N            2.29579732271922        0.09704005447224        0.02916760263855
C            2.60429461013714       -1.25480409907606        0.03415321354679
N            1.41790682496961       -1.95948384202703        0.00093319836653
C            0.39253621574207       -1.08410800234729       -0.01069552885901
C            0.90176281417818        0.20810304524748        0.01050366712014
C            0.08443087311051        1.35860274198955       -0.00776104836715
O            0.46029116278048        2.53676469407443       -0.00661067654097
N           -1.31759319674383        1.04444723463547       -0.03318086575191
C           -2.19556262050995        2.23748148686167       -0.04620145601086
C           -1.85090860555087       -0.21722653699249       -0.05040539782139
O           -3.04408401863957       -0.43429597036766       -0.07381904450655
N           -0.94989284532404       -1.32214595582391       -0.03866662335403
C           -1.44682561796959       -2.67952245239009       -0.05980024470134
H            3.69855287038704        1.24780769896235        1.07089441405696
H            3.99476077122371        1.06673397555646       -0.67421521683350
H            2.65900461819465        2.10057220389003       -0.09201189491458
H            3.58341065531579       -1.67135415868832        0.02725996022643
H           -1.54788699846357        3.10601390255771       -0.02062616529611
H           -2.81282641506825        2.25884501413320       -0.94773711734196
H           -2.86322638718318        2.23929595778205        0.81828463119461
H           -1.12577141316044       -3.22772512601352        0.83043796746000
H           -1.10016534973387       -3.20847098802765       -0.95199406131079
H           -2.53399026402036       -2.61652277097155       -0.07576648111577
H            1.36707790830440       -2.96707608213407       -0.01131959280103
