25
 energy: -2.732927324520 xtb: 6.6.1 (8d0f1dd)
C            3.20566110398336        1.18777306731703        0.08786902143034
N            2.28325181379398        0.09417098174527        0.02336003870040
C            2.59535192905258       -1.26003402604040        0.03295099955703
N            1.41386230845601       -1.97188880813526       -0.00090095237324
C            0.38535031674496       -1.09833181823234       -0.01278039176783
C            0.88761919272909        0.19698618412993        0.00718135592005
C            0.06660686403647        1.34299169119105       -0.01023376133258
O            0.44755736999613        2.52065281100604       -0.00876695441821
N           -1.34445453748252        1.04282934874671       -0.03503135258116
C           -2.18405906688891        2.28267476589409       -0.04475769806379
C           -1.86922355297614       -0.22735324571985       -0.05243397549270
O           -3.05822437696916       -0.46217722460683       -0.07593001480491
N           -0.95794111333435       -1.33420762750645       -0.03971913890127
C           -1.43615455211825       -2.69811347191833       -0.05860998298202
H            3.68104505714365        1.25754307706206        1.07238374791799
H            3.98292777495785        1.08035034104408       -0.67168146339961
H            2.63709406976726        2.10036199838761       -0.09152810119333
H            3.58244626341128       -1.65004771579190        0.01433646183611
H           -1.48874306744846        3.11006641478033       -0.01865428536456
H           -2.80360666024593        2.34194984081740       -0.94452561128463
H           -2.85213359970041        2.32037233966134        0.81987485704823
H           -1.10439475753769       -3.24151055167802        0.83117756960676
H           -1.07923752529216       -3.22442211688908       -0.94871768992920
H           -2.52426292953363       -2.64828892365961       -0.07502442208310
H            1.37743464810518       -2.98088944561194       -0.01178654427277
