25
 energy: 56.485335770644 xtb: 6.6.1 (8d0f1dd)
C            3.06116638404870        1.18410009889538        0.09940890780993
N            2.22111316696876        0.00815787697814        0.05560765008157
C            2.64398763164030       -1.25316388871465        0.08844825211451
N            1.57545281825729       -2.09007846837620        0.00318124228920
C            0.43986068314495       -1.30692625570965       -0.01938459461054
C            0.85127959111250        0.01013171228245        0.01877269913032
C           -0.13243366224844        1.12333790465585       -0.01698647022407
O            0.29912500177037        2.27255729196155       -0.03990519069947
N           -1.41048702705260        0.73554515372700       -0.03081263114397
C           -2.41719065185250        3.39655887305026       -0.04370782298138
C           -1.85303192713139       -0.50858373768578       -0.04742050907791
O           -2.99969422701119       -0.88146569430019       -0.06906102664816
N           -0.84570412417746       -1.63298350500286       -0.04684266506191
C           -1.26673308696227       -3.00527646413862       -0.05744125506168
H            3.45165734154674        1.32846476637630        1.10999872184670
H            3.90266009441790        1.06627461734600       -0.58400593509761
H            2.46327552027983        2.05564809590483       -0.17182044127273
H            3.64295303417183       -1.55384763037077       -0.07001663693198
H           -1.37149104677037        3.57106095466744       -0.04711538976998
H           -2.93602810114941        3.44766139155085       -0.95526375629472
H           -2.92086546751112        3.42269146605785        0.87824287860115
H           -0.89251860693330       -3.50718553185176        0.83654159303410
H           -0.86625186866749       -3.49693796172262       -0.94403604893251
H           -2.36419247976137       -3.01172330274799       -0.06735651115810
H            1.63182494050789       -3.09552502848178        0.01890546927032
