25
 energy: 57.459989783415 xtb: 6.6.1 (8d0f1dd)
C            3.07855186800711        1.19628399671843        0.10218865435245
N            2.21515923134546        0.03999410740976        0.05328358277993
C            2.62490452261687       -1.25131636141768        0.16261093453493
N            1.51400226219095       -2.05948636133461        0.01142373332273
C            0.40531874026218       -1.24278213900935       -0.01608237988595
C            0.83755904268123        0.06550731112687        0.01418573018357
C           -0.09977091582719        1.19421930688583       -0.02082308772472
O            0.36190322764736        2.33558973621823       -0.03837749579428
N           -1.42032102746103        0.85887405073756       -0.03170075607055
C           -2.30476836174688        3.05833717785285       -0.04074986306075
C           -1.88842562037378       -0.40363791492163       -0.05017465211194
O           -3.04555884815091       -0.74970371981118       -0.07347808521559
N           -0.89864450877980       -1.52747909314578       -0.04703039549364
C           -1.31209756096553       -2.90213861591714       -0.04994067099603
H            3.51354517412851        1.29802101604261        1.09647770699899
H            3.88025093391172        1.11633813271897       -0.62700524322043
H            2.44948125896157        2.06745312971041       -0.10272193901473
H            3.60227113310013       -1.55804742033192       -0.16845561370792
H           -1.29554028453689        3.39205459276818       -0.04324258146820
H           -2.82503623757094        3.10687876895828       -0.95300652312073
H           -2.82931638933985        3.08147136718914        0.87005626974555
H           -0.92049015823630       -3.39257459724408        0.84467311274834
H           -0.89052500534159       -3.38698737392731       -0.93025565585551
H           -2.40945392264604       -2.91042653229333       -0.06737641313325
H            1.55132976508064       -3.06607505650866       -0.00477763860401
