25
 energy: 57.615956159255 xtb: 6.6.1 (8d0f1dd)
C            3.06745402748997        1.18914493686374        0.10048987272686
N            2.21513219690680        0.02225092913357        0.05441093421227
C            2.63051397286045       -1.25132723420086        0.13725866439085
N            1.54468008400556       -2.07563594752882        0.01099506249279
C            0.42107966140840       -1.27586757760245       -0.01919464612210
C            0.84232358797543        0.03719391002840        0.01668008996411
C           -0.12324708831296        1.15949291464637       -0.01982144117552
O            0.32628063151948        2.30381302644293       -0.03957190917512
N           -1.41950899462841        0.79334474899809       -0.02971166687190
C           -2.36971312569091        3.23290684431920       -0.04193680201169
C           -1.87396466716846       -0.45689591480113       -0.04863715660350
O           -3.02459779604164       -0.81852273979814       -0.06964899131891
N           -0.87222252815852       -1.58247429106275       -0.04821376719460
C           -1.28820555685530       -2.95518532890807       -0.05521469046239
H            3.47445045110495        1.30300745211722        1.10544308221657
H            3.89303782923557        1.09262455178813       -0.60340431607629
H            2.45281761293663        2.06278816625154       -0.13580570398752
H            3.61676899977886       -1.55858155674757       -0.09868066715185
H           -1.34181738087086        3.47688566174752       -0.04596444892688
H           -2.88589230110767        3.28010082740173       -0.95395057163112
H           -2.87781846015744        3.25480662444087        0.87565771609903
H           -0.90314815317613       -3.45119626210593        0.83807562042513
H           -0.87733658408629       -3.44240634949174       -0.93908762852978
H           -2.38580771192539       -2.96304466535292       -0.06722300016637
H            1.59238372313826       -3.08236953378937        0.00460685015142
