25
 energy: 55.824916335474 xtb: 6.6.1 (8d0f1dd)
C            3.08885179209408        1.19891770744272        0.10034716547935
N            2.21770492010877        0.05074682606247        0.04222504727966
C            2.62258479056609       -1.25155173539816        0.15011255962371
N            1.49715127559122       -2.05014451569271        0.00973680838185
C            0.39804075259607       -1.22446197657045       -0.01664472987816
C            0.83556621868307        0.08105376947705        0.00844787831311
C           -0.08390867034894        1.21289097764004       -0.02132574159158
O            0.38184954158021        2.35340207721926       -0.03574356995816
N           -1.42098855851816        0.89714365062957       -0.03249116206999
C           -2.27406653050669        2.95181895573691       -0.04047778345049
C           -1.89462882985085       -0.37619956168848       -0.05030363772190
O           -3.05488620995218       -0.71332480511035       -0.07428294290727
N           -0.91271130532395       -1.49770061643038       -0.04594980068372
C           -1.32278410716474       -2.87538778937127       -0.04855304097085
H            3.53338136938113        1.29480663377377        1.09188343144217
H            3.87865692470688        1.12528206382682       -0.64039333890996
H            2.46823570081170        2.07624229979194       -0.09585972090075
H            3.59858070774575       -1.56306031318070       -0.19580751494435
H           -1.28278941935909        3.34057613047242       -0.03916932635420
H           -2.79610442290843        3.02025218400930       -0.95273154399267
H           -2.80764634238758        2.99447603376119        0.86659228718389
H           -0.92025410133633       -3.36350909913180        0.84419736563229
H           -0.89795602662231       -3.35983978480836       -0.92970820138171
H           -2.41991516909022       -2.88513213749002       -0.06672615456045
H            1.52995064293616       -3.05691275943172       -0.00779728913684
