25
 energy: 0.413560897550 xtb: 6.6.1 (8d0f1dd)
C            3.18914425258316        1.19103047111512        0.08861077858011
N            2.26908669107918        0.09296346240683        0.01822291786104
C            2.58552447502239       -1.25839656763886        0.03302897251362
N            1.41247832025175       -1.98302161371696       -0.00327123956299
C            0.37863676209086       -1.11283987741723       -0.01513773523922
C            0.87229563693171        0.18579051313458        0.00369379568986
C            0.04799607905901        1.32794082612357       -0.01346651215112
O            0.43882801180218        2.50358019649140       -0.01204390337057
N           -1.37189542379330        1.04513933055747       -0.03726765529271
C           -2.17460229248475        2.33124962437029       -0.04319583916680
C           -1.88686735426212       -0.23529333233376       -0.05464483542959
O           -3.07100369851443       -0.48962639546146       -0.07800600582346
N           -0.96499963834848       -1.34605798872240       -0.04080125649230
C           -1.42427010092247       -2.71646316898666       -0.05721042978140
H            3.66177773609029        1.26553218545464        1.07426838551239
H            3.96969995033778        1.09310465124126       -0.66876224666912
H            2.61432728609290        2.09990166804157       -0.09082545961045
H            3.58209643810606       -1.62931417170756       -0.00442818638716
H           -1.43394855248007        3.11684810840300       -0.01704633337091
H           -2.79230237559534        2.42574137313582       -0.94135734116126
H           -2.83842546776122        2.40235730333503        0.82255489609454
H           -1.08064312767493       -3.25430047797249        0.83217833145301
H           -1.05612723858205       -3.23970102985015       -0.94514015383446
H           -2.51323415981636       -2.68072039063273       -0.07403611647597
H            1.39094696924626       -2.99310264664402       -0.01253036901876
