25
 energy: 22.382485982848 xtb: 6.6.1 (8d0f1dd)
C            3.12798862124638        1.20094627606167        0.09336143307677
N            2.23162380089260        0.07808281731212        0.00962721238291
C            2.60494393077828       -1.25887541818794        0.11855846667381
N            1.44456725273154       -2.01705935475331        0.00220467155785
C            0.37941045068254       -1.17328663771324       -0.02176139480163
C            0.83177891188915        0.13452415200584       -0.00424728390616
C           -0.01728507933504        1.27234200280407       -0.02058287218629
O            0.44146752558848        2.42633129659407       -0.02082482647566
N           -1.45108102269868        1.05542702370938       -0.03553883619101
C           -2.16262481256855        2.54253165353621       -0.04106976070228
C           -1.91979365506564       -0.28163122763253       -0.05259231311673
O           -3.08566512292939       -0.60685761233567       -0.07954784161691
N           -0.95921139757254       -1.40356625813046       -0.04168498496317
C           -1.37201533612273       -2.79100304975515       -0.05176779104853
H            3.58761973400054        1.28665768224947        1.08287671095723
H            3.91389516476176        1.13142241025726       -0.65795486182359
H            2.52857599769705        2.09369656737322       -0.08912595519114
H            3.59051785015528       -1.60515217941352       -0.14352286179231
H           -1.26293293508119        3.16087202075160       -0.02025280374713
H           -2.73447621977619        2.74707334972205       -0.93727254886211
H           -2.77611640658255        2.72269116009079        0.83122292038354
H           -0.99054548720437       -3.30835269078421        0.83583767355864
H           -0.96989997756946       -3.29991800787274       -0.93424968750469
H           -2.46465057923773       -2.80005251165217       -0.06934986556613
H            1.46627075943296       -3.02526279868567       -0.01737999929048
