25
 energy: 4.440646994089 xtb: 6.6.1 (8d0f1dd)
C            3.17377760729101        1.19485127205118        0.08981801068766
N            2.25827762322983        0.09182096451155        0.01419773743191
C            2.58766874993124       -1.25423257449310        0.04295558587724
N            1.41891847609173       -1.99119815592305       -0.00579122708148
C            0.37585879058651       -1.12785922812020       -0.01736342880886
C            0.85954071975287        0.17376654574684        0.00098283853594
C            0.02945712922332        1.31217287201964       -0.01593933735947
O            0.43211232910161        2.48465120420029       -0.01481442506544
N           -1.39878852122061        1.04796878369487       -0.03867078479189
C           -2.16603058083672        2.38138836125316       -0.04208738564402
C           -1.90364269857163       -0.24305419225963       -0.05553844758457
O           -3.08203160544379       -0.51879318695407       -0.07904412726519
N           -0.96821418479109       -1.35883037345865       -0.04077640683667
C           -1.41226034690812       -2.73453066424185       -0.05567090666987
H            3.64357805920217        1.27240570567432        1.07653939241883
H            3.95651682999233        1.10487257682341       -0.66585092409991
H            2.59262480415913        2.09970163276164       -0.08967983909412
H            3.58458735229915       -1.62705716069228       -0.03889021127815
H           -1.38041530729822        3.12245403693254       -0.01639628262954
H           -2.77877548598347        2.50858316263028       -0.93910176539190
H           -2.82374372265900        2.48493076529507        0.82425999507059
H           -1.05819768014079       -3.26752196352998        0.83313714007240
H           -1.03480187151910       -3.25458276264746       -0.94205247537547
H           -2.50203612051949       -2.71061284792485       -0.07256617639977
H            1.40908609585923       -3.00193233852855       -0.01396583018552
