25
 energy: 54.210207364661 xtb: 6.6.1 (8d0f1dd)
C            3.05817506352888        1.16318601481265        0.08856318493089
N            2.24108911806055       -0.02317322210382        0.02120791842537
C            2.68021476409652       -1.27302905355734        0.03841445649038
N            1.62770655912494       -2.13086287340980       -0.03627636879780
C            0.47796506056045       -1.37187379663006       -0.03615295802098
C            0.87469250781525       -0.04592325758603        0.00034328615175
C           -0.14695793986500        1.03717791541413       -0.01104325747392
O            0.22582540271357        2.20275873143320       -0.01866546746403
N           -1.39723915398203        0.59202922505023       -0.02867825035211
C           -2.54859439168266        3.76986121248601       -0.04199254010874
C           -1.82936010950877       -0.64515241821563       -0.04707897088405
O           -2.96712666591195       -1.03888890635823       -0.07132072141831
N           -0.79217352388687       -1.74847461198160       -0.04381591546354
C           -1.20949708528193       -3.12630190825748       -0.05582543643492
H            3.45858376093893        1.30762514733956        1.09230135885795
H            3.89149415364733        1.07692688449346       -0.60551177109206
H            2.44310579461962        2.02824251342582       -0.16152218004744
H            3.70020993161820       -1.57791720188637        0.03249836664554
H           -1.50511546249007        3.58771524179386       -0.04292409344833
H           -3.04675512738309        3.87733660606829       -0.97634062781154
H           -3.04471047343931        3.84272232448022        0.89624313355572
H           -0.86212037236134       -3.64120323040062        0.84368221578726
H           -0.83582438659124       -3.63124021990363       -0.94915963309430
H           -2.30264727680804       -3.11593884311517       -0.07309931686216
H            1.69498371134265       -3.13603378467235        0.02514989912730
