25
 energy: 55.972468797601 xtb: 6.6.1 (8d0f1dd)
C            3.06336935358987        1.18232663429563        0.09794799325955
N            2.22615794043182        0.00389772377188        0.04530970573280
C            2.65470163003935       -1.25422046250265        0.05893114135495
N            1.59067286524331       -2.09737276243695       -0.00993470933037
C            0.45080264496862       -1.32010902250589       -0.01464507778541
C            0.85980266929614       -0.00030078300804        0.01889726635068
C           -0.13279644506037        1.10646085706569       -0.01450854812376
O            0.28549809088357        2.25979690032957       -0.03614639180500
N           -1.40293069343233        0.70905503826620       -0.03114266636742
C           -2.44927087211855        3.47120752194596       -0.04348017267366
C           -1.84137421335900       -0.53203611507175       -0.04722484415123
O           -2.98594323353036       -0.90333315650215       -0.07245735094312
N           -0.83144209382859       -1.65570820484182       -0.04256671414176
C           -1.25722891895699       -3.02791446915104       -0.05767064221464
H            3.43713010371920        1.34010419906847        1.11258825443028
H            3.91246740443691        1.05421520952149       -0.57332707662545
H            2.47483825942276        2.05391081793066       -0.19099365441433
H            3.66410867354595       -1.55065894520740       -0.06285509434887
H           -1.40024125612650        3.60478170901645       -0.04364664771264
H           -2.96277035227657        3.53302286853542       -0.95809738512337
H           -2.94840737910779        3.50652339709102        0.88100404533958
H           -0.88846126251447       -3.53471211926976        0.83598402409868
H           -0.86303685199450       -3.52303189431430       -0.94586146003471
H           -2.35666140601591       -3.02870730960674       -0.06903843258502
H            1.65051013348312       -3.10114579555840        0.02548789590766
