25
 energy: 57.134125063620 xtb: 6.6.1 (8d0f1dd)
C            3.06485531629866        1.18579513813914        0.10014031558172
N            2.21712455813171        0.01475839757424        0.05638323557189
C            2.63429214709061       -1.25196140461972        0.11537546519275
N            1.55946254184817       -2.08333144027132        0.00914758754394
C            0.42961235331287       -1.29181966888457       -0.02049692786365
C            0.84530162856510        0.02326922296013        0.01744537901775
C           -0.13101432873657        1.14181529475345       -0.01835033894007
O            0.31073093216036        2.28820832531493       -0.03899755101964
N           -1.41728980830846        0.76336622960130       -0.02985801277371
C           -2.39858065925695        3.31599100704927       -0.04277623439991
C           -1.86483737929852       -0.48394397975363       -0.04811332249444
O           -3.01302331291850       -0.85432750527148       -0.06880723207500
N           -0.85944689286722       -1.60849903278345       -0.04836052259782
C           -1.27699619683320       -2.98105103989960       -0.05704222238597
H            3.46488402544034        1.31569816445385        1.10778567895028
H            3.89807059421178        1.07762241951560       -0.59392753478138
H            2.45966288344579        2.05918122387833       -0.15400395521360
H            3.62448854009785       -1.55826255040054       -0.07596513119250
H           -1.36161191720089        3.51710014896105       -0.04551408070329
H           -2.91438268512969        3.36343965510244       -0.95512986788658
H           -2.90260042736518        3.33821801957400        0.87770365442682
H           -0.89625567969820       -3.47963027787878        0.83629336210440
H           -0.86978574408539       -3.46989686961607       -0.94183914599090
H           -2.37432695947674       -2.98808491913329       -0.06769947934896
H            1.61252697753455       -3.09011786072899        0.01054007830971
