25
 energy: 15.471191974143 xtb: 6.6.1 (8d0f1dd)
C            3.14361116867621        1.19909094525753        0.09279955566670
N            2.23908398416891        0.08373416980234        0.01057035553893
C            2.59705784448494       -1.25670130667599        0.09347558038158
N            1.43455214110816       -2.00758235967685       -0.00407665782687
C            0.37579885919186       -1.15744720344445       -0.02055389544237
C            0.83788248151813        0.14889009866724       -0.00224295834562
C           -0.00540851930807        1.28610339968174       -0.01791893640348
O            0.43598293012042        2.44596862486264       -0.01708046192638
N           -1.44511168572154        1.06257167801513       -0.03720060457939
C           -2.16441260874431        2.48961385420676       -0.04324563584242
C           -1.91992037825480       -0.26297666872014       -0.05064568415439
O           -3.08868803178980       -0.57669335559777       -0.07688452839008
N           -0.96555623059820       -1.38612653275728       -0.03935828097112
C           -1.38621062354709       -2.77127601508617       -0.05294194069016
H            3.60766889573923        1.28088650877723        1.08118865374887
H            3.92891008893164        1.12323429622627       -0.66009102800027
H            2.55173619687741        2.09723975582343       -0.08737691108669
H            3.58845359492257       -1.61202578536857       -0.11179742912243
H           -1.29687620941088        3.14978155318238       -0.01837122840596
H           -2.75012692672075        2.66802648045990       -0.94072076486457
H           -2.79554432375317        2.64665200102508        0.82642830074861
H           -1.01267744288875       -3.29575622489152        0.83388149306919
H           -0.99234330867492       -3.28383499198969       -0.93720284243570
H           -2.47772424732774       -2.77161676371379       -0.06952254754027
H            1.44749027040188       -3.01714820173342       -0.01815907945788
