25
 energy: 57.824130966403 xtb: 6.6.1 (8d0f1dd)
C            3.07182340503768        1.19299318987059        0.10108651141410
N            2.21525896910901        0.03015474236268        0.05390378564452
C            2.62956658700617       -1.25145888222283        0.15429618684209
N            1.53047997937719       -2.06780480764249        0.01080578870434
C            0.41355117831146       -1.25986920115625       -0.01791754789719
C            0.84020665624268        0.05092065313465        0.01582834848712
C           -0.11280986793318        1.17648659501037       -0.02057769241907
O            0.34347077900159        2.31918157614818       -0.03978727580397
N           -1.42043192234255        0.82465392382524       -0.03064833990044
C           -2.33317688697909        3.15151517918291       -0.04121694799967
C           -1.88168591343798       -0.43067165515668       -0.04958032544467
O           -3.03549937995585       -0.78469469140563       -0.07168157761209
N           -0.88488310145619       -1.55562747844854       -0.04799387208857
C           -1.30010808896496       -2.92883046008847       -0.05245072731131
H            3.49300552557967        1.30154444258520        1.10052944136839
H            3.88762879645541        1.10757640470314       -0.61425824764890
H            2.44305622907036        2.06091029593164       -0.11980346963677
H            3.61050805964387       -1.55811705829649       -0.13329254080753
H           -1.31211740337927        3.44186605306747       -0.04657489609277
H           -2.85333967493923        3.19355108490720       -0.95248096477392
H           -2.85034085131447        3.16813894230268        0.87262687567305
H           -0.91191386427717       -3.42173857228707        0.84171037412712
H           -0.88514371518083       -3.41519318994655       -0.93475869673289
H           -2.39785998964386       -2.93657683190704       -0.06685228083913
H            1.57238794991352       -3.07430251036369       -0.00151788733974
