25
 energy: 30.940263465000 xtb: 6.6.1 (8d0f1dd)
C            3.11396194005182        1.20151899952802        0.09449406721475
N            2.22237528677244        0.07541611184318        0.00944865319484
C            2.61180326259819       -1.25917496697742        0.14123370617993
N            1.45452051962572       -2.02594167286329        0.00595174613527
C            0.38509534736269       -1.18684133318163       -0.02211718676648
C            0.82421926492028        0.12316081888500       -0.00546797400453
C           -0.03364093693780        1.26034042683709       -0.02317805606714
O            0.43270102271518        2.41098947721748       -0.02908707742190
N           -1.46133545379668        1.04365247331253       -0.03431827797155
C           -2.17230706225926        2.60231730175519       -0.04091681468200
C           -1.92023799414014       -0.30198457797864       -0.05192281525316
O           -3.08427117500225       -0.63178679476102       -0.07582404600964
N           -0.95226347013137       -1.42087247102947       -0.04340472572103
C           -1.35608739384819       -2.81107291440692       -0.05017933489757
H            3.56977788462884        1.28859360976996        1.08509525800732
H            3.89974470008879        1.13221909604184       -0.65508889881791
H            2.50950061137199        2.09027423917484       -0.09061642173876
H            3.58925239880842       -1.59618763117326       -0.17418407701154
H           -1.26689412440970        3.20485241173642       -0.02630773473893
H           -2.72520704025880        2.82735320939477       -0.93759134681767
H           -2.76182355404618        2.80024208495880        0.83674859690297
H           -0.96479879204759       -3.32022201807467        0.83793059435673
H           -0.94454793779007       -3.31424687307565       -0.93141288459678
H           -2.44991215008911       -2.83034875142997       -0.06827070847973
H            1.48323219194966       -3.03391776496893       -0.01380258293383
