  25
        -42.13271492
 C          3.3785751337        1.3880861931       -0.0074119534
 N          2.4412340588        0.2954447653       -0.0007163612
 C          2.7301776426       -0.9991633661        0.0021828367
 N          1.6020812165       -1.7294520608        0.0066639064
 C          0.5331202924       -0.8689517507        0.0064211450
 C          1.0806019301        0.4220631836        0.0019556513
 C          0.2051129208        1.5749181941        0.0013840079
 O          0.5725390142        2.7334583969        0.0014391374
 N         -1.1253281467        1.1973579884        0.0008335498
 C         -2.1259272344        2.2444906609       -0.0041525795
 C         -1.6282099377       -0.1326888566        0.0042557568
 O         -2.8232231305       -0.3052875963        0.0022043998
 N         -0.7399468022       -1.1629190982        0.0086424080
 C         -3.5687841020       -4.7403405559       -0.0196979387
 H          4.0187274495        1.3430903578        0.8738175316
 H          4.0042885138        1.3442875712       -0.8990855665
 H          2.8211215931        2.3246885080       -0.0025052631
 H          3.7229122051       -1.4073731742        0.0004574803
 H         -1.6160702963        3.2062854054       -0.0137509880
 H         -2.7643794868        2.1426802492       -0.8831911912
 H         -2.7583869301        2.1581322937        0.8809011611
 H         -3.6070906277       -5.2987270019        0.8947944072
 H         -3.5837549706       -5.2559412799       -0.9601146414
 H         -3.5193390521       -3.6682312638        0.0053800298
 H          1.5357883130       -2.7374290231        0.0106246746
