  25
        -42.10216487
 C          3.2413758328        1.1206429738        0.0143879281
 N          2.2497134074        0.0833590062       -0.0027767618
 C          2.4753542696       -1.2579336174       -0.0057018691
 N          1.3754128333       -1.9703463472       -0.0042408682
 C          0.3653922169       -1.0636448532        0.0004490068
 C          0.9048555945        0.2377355504        0.0039457597
 C          0.0650112394        1.4180870430       -0.0031730402
 O          0.4581556874        2.5605093106       -0.0134827013
 N         -1.2868514687        1.0807417458        0.0007366063
 C         -2.2521426779        2.1703601338       -0.0002088466
 C         -1.8421107237       -0.1873636620        0.0026572314
 O         -3.0295654283       -0.3614076976        0.0060849856
 N         -0.9542685103       -1.2884780634       -0.0009127115
 C         -1.4981542480       -2.6208404967       -0.0015338881
 H          3.7525116324        1.1348768413        0.9792252558
 H          3.9808920392        0.9422630203       -0.7665084414
 H          2.7575452142        2.0831121654       -0.1452796785
 H          3.4578741362       -1.6868605564       -0.0108929523
 H         -1.7055505085        3.1103107501        0.0080133451
 H         -2.8826913151        2.1059707912       -0.8873184323
 H         -2.8942938532        2.0961470868        0.8776515583
 H         -1.1528553740       -3.1627068874        0.8797001657
 H         -1.1599651217       -3.1591007886       -0.8879550845
 H         -2.5845507761       -2.5486571946        0.0022271338
 H          2.6228112156       -4.5333230756        0.0395708909
