72
 energy: -99.336309361343 gnorm: 0.006319825010 xtb: 6.6.1 (8d0f1dd)
N           -1.94438215664939        3.05640421457072        2.21678679774511
C           -1.78588472544489        2.33202178812580        1.21151478254190
C           -2.89035170155354        1.95002203761616        0.26085203239726
C           -3.11655742902191        0.45724269472066        0.30173274768847
C           -3.92363052815693       -0.15775374973978       -0.66996548755525
C           -4.21911442293658       -1.49321470304805       -0.62322439991833
O           -4.91825461366997       -2.18339881371377       -1.52735443823311
C           -5.53120882658280       -1.51502684645564       -2.61077947458194
C           -3.82777108777331       -2.34913607148002        0.55486522960181
O           -5.04264713576775       -2.56286109519445        1.29563875494938
C           -5.21303629280531       -3.85099768444431        1.83126331250180
C           -2.83856814401683       -1.66275000700440        1.43981690009932
C           -2.56902368912196       -0.34263765449536        1.33066839258750
C           -2.41134484458920        2.41320394892550       -1.14322218876104
C           -1.41978436979734        1.47653114867875       -1.86099994183056
C           -0.09842578343136        1.34214601237829       -1.19513690006016
N            0.45006131907767        0.20390513657324       -0.78357367151529
C            1.83263432050882        0.27253301236191       -0.31646028316302
C            2.80202384509176       -0.05259686649400       -1.46334102391281
C            4.22537455501839        0.03187341395627       -0.98676208362691
C            4.94557369979663        1.20911706465584       -1.11226168339425
C            6.25333368350124        1.29328833437160       -0.66078298280193
C            6.86763670394872        0.19904458576124       -0.06764809748129
O            8.12773025361147        0.16388787374390        0.39969986969914
C            8.94144355543182        1.30778989738145        0.27494861772776
C            6.13342999951998       -1.01260591290396        0.07255777809054
O            6.80423032129151       -2.02325715578772        0.65710911987127
C            6.17356122057426       -3.27192031436016        0.81525646710606
C            4.82678873349941       -1.07173217376972       -0.38698710528534
C           -0.10002098907624       -1.00146518283835       -0.79506811981037
C           -4.25484608279822        2.63426535085678        0.59899416716522
C           -4.79473572451195        2.16515251010891        1.94791593253645
C           -4.18713674234175        4.15804746879857        0.56986816788993
H           -4.31668524269258        0.44211770096698       -1.47549820325775
H           -6.23593198914685       -0.75754690850031       -2.25910541752674
H           -6.06861315480651       -2.28266293289010       -3.16405720333986
H           -4.78567006736117       -1.05117601816799       -3.26355920938026
H           -4.43691163224076       -4.09236032954464        2.56575140425483
H           -6.18208726438213       -3.84224397733978        2.32600696698122
H           -5.21508507341113       -4.61317010016984        1.04311182075436
H           -2.43262238891504       -2.24541570917289        2.25211342102388
H           -1.92603428596604        0.12312549264923        2.06210270408669
H           -3.28083528586756        2.53024120332034       -1.79058791828356
H           -1.94951839396166        3.39601394603060       -1.03713353068642
H           -1.87887710082533        0.50185568652058       -2.00907554038692
H           -1.25030714772369        1.91723312030510       -2.85089712777210
H           -0.80753376908923        1.93999191703052        0.88514473549658
H            0.52028166694303        2.22325674445932       -1.14140319887167
H            1.97187464450792       -0.44164812822377        0.49700528149153
H            2.04350827376373        1.27377196969167        0.06352614345737
H            2.64060194416110        0.65659580930635       -2.27699858007543
H            2.58850006893507       -1.05586596905966       -1.83593662546313
H            4.49381117358408        2.07153344841972       -1.57808758127280
H            6.79081887540241        2.21945232777430       -0.78090601300289
H            8.52766774078953        2.15602549739903        0.82852177695154
H            9.07975190587030        1.58744315424388       -0.77363945262063
H            9.90210353476467        1.03072795312933        0.70458116991829
H            6.91360179662200       -3.91500411041210        1.28756427893627
H            5.29381598224203       -3.19785708408572        1.46247471803887
H            5.88462886844108       -3.70051016672180       -0.14932047606693
H            4.26513277536777       -1.98822106701219       -0.29593525145630
H           -1.09664142621103       -1.15883380630052       -1.14948961747972
H           -3.46368798397118       -3.32744572635378        0.21253429671627
H            0.45856352593590       -1.83248957905278       -0.41779210198550
H           -4.95950035371613        2.31018666451019       -0.17585784167387
H           -4.12453604088171        2.47162449703869        2.74502338250094
H           -4.90688839109282        1.08362386776442        1.97459459789842
H           -5.76869623724225        2.61394692522852        2.12525531305211
H           -3.48568680121786        4.51858914543223        1.31592872052289
H           -3.89696110102911        4.53568996846074       -0.40688840631038
H           -5.16957634587152        4.55999575694079        0.80482406262764
H           -1.12635662349120        3.28842607701079        2.77144815655937
