25
 energy: 132.968415867609 xtb: 6.6.1 (8d0f1dd)
C            3.38610332565692        1.31175626934010        0.11191880551927
N            2.45810045947875        0.20998112263451        0.08131350119819
C            2.76175207975236       -1.08582555038647        0.11730276596007
N            1.65618043120611       -1.83811495199249        0.06697417008728
C            0.56059003957851       -0.99230495902928       -0.01889265080943
C            1.06931576544825        0.31689982218007        0.00003390610634
C            0.21795248479397        1.44144212192835       -0.03910843668758
O            0.59117928381052        2.62202288871922       -0.05462790811337
N           -1.14647063273968        1.03650772816480       -0.06236164504052
C           -2.06865940919651        2.17219917686847       -0.10705286443433
C           -1.67107195962589       -0.19644728874546       -0.08234783852896
O           -3.95317203621000       -2.58029106389245        0.00864018490388
N           -0.76454871246523       -1.28511951936142       -0.09362143742839
C           -1.23000623531566       -2.53689254138666       -0.23725419606621
H            3.89923559057303        1.36348075351256        1.07462559715102
H            4.13243924109414        1.19693325177753       -0.67420724569705
H            2.82306774135735        2.23574070972772       -0.05335163873359
H            3.76219519962583       -1.47714564898231        0.18262863852886
H           -1.46653824737900        3.08017141757985       -0.05545125429352
H           -2.63021041933325        2.15158988966591       -1.04688382378401
H           -2.76593707435361        2.16210218301223        0.73202174051895
H           -0.58574153590816       -3.39547901349191       -0.34287935325193
H           -2.31110506133502       -2.61931152210195       -0.04872545374655
H           -4.88262704959697       -2.81239481168548        0.09036594832347
H            1.62508796131175       -2.84988371843599        0.11412069850126
