25
 energy: 137.921621579343 xtb: 6.6.1 (8d0f1dd)
C            3.37154160424623        1.29359114420744        0.10856031842001
N            2.44801875631084        0.18505188151883        0.08936127290476
C            2.75321453565048       -1.11949524319169        0.12871566569162
N            1.62977190002750       -1.84916940593060        0.08937832071188
C            0.53806914167125       -1.01013333398679       -0.00072940176925
C            1.05508783398544        0.29919437800873        0.00277401918966
C            0.17972110091068        1.40496922235869       -0.03186522694020
O            0.52998685844968        2.59194576517017       -0.04848892031481
N           -1.19564664681091        0.98857586507271       -0.05871558525003
C           -2.09569069986526        2.13952284840030       -0.12346494279878
C           -1.72415648081145       -0.24576967455081       -0.08886306822159
O           -3.90354340809872       -2.40334977431521        0.03921025328007
N           -0.78256134810029       -1.30738383859521       -0.11897722523068
C           -1.29766375286311       -2.52483595921494       -0.32173465377481
H            3.91424584354812        1.33512651162928        1.05476901942828
H            4.10078975273028        1.19501220986677       -0.69763942365812
H            2.83224994919466        2.23693103180343       -0.01734116336641
H            3.75684252599251       -1.51685860442872        0.18570764121580
H           -1.47766815389666        3.03281891777345       -0.08048199444250
H           -2.64237270718779        2.10854415567743       -1.07662511308961
H           -2.79736468912480        2.15126152865549        0.70751229740144
H           -0.68027814499072       -3.37407624865274       -0.54653413566008
H           -2.39752185006375       -2.46235412891784       -0.19236005380106
H           -4.76965289174116       -2.92613193917737        0.16270335439956
H            1.58292786500520       -2.86147678571780        0.16695923356435
