25
 energy: -42.109584229574 gnorm: 0.003666780523 xtb: 6.6.1 (8d0f1dd)
C            3.02395429623864        1.17274918829216       -0.01531032542062
N            2.18254859077821        0.14671576032721       -0.01069960229835
C            2.47792679540478       -1.17480212340626       -0.02219983730383
N            1.32966335337265       -1.90609902921838       -0.01150636794728
C            0.27680629906484       -1.04577194849463        0.00609182761775
C            0.78886807276915        0.24045796773073        0.00721601097487
C           -0.06141143623044        1.40789076331841        0.01447544123507
O            0.31080996329746        2.55647766501922        0.02094769029072
N           -1.41094744888736        1.04650185633099        0.00984846881773
C           -2.39197129651391        2.12205268073729        0.01218804590548
C           -1.94789168830958       -0.22660667927645        0.02080196970298
O           -3.12978698211085       -0.42680098837507        0.03119684268241
N           -1.03905101795196       -1.30942225429176        0.01593058234468
C           -1.55916225174586       -2.66120983434593        0.03693702787998
H            4.10595635718157        1.00790936550178       -0.03991942213474
H            5.86392692974332        1.03050123179153       -0.14908411744757
H            2.61532951779261        2.16818346738983       -0.00757387380547
H            3.46518483014275       -1.58911372816154       -0.03722289219679
H           -1.85751912472652        3.06863583432596        0.01642996780676
H           -3.02468415471046        2.04761167909594       -0.87248974014378
H           -3.02794210188223        2.04101990761445        0.89374743616813
H           -1.23881428722274       -3.17984367838796        0.94080926937504
H           -1.23420030495270       -3.21033509457165       -0.84691951843822
H           -2.64677430394373       -2.59366124086002        0.03309241124985
H            1.28961290750216       -2.91480222648623       -0.01561567701515
