25
 energy: 103.396677746586 xtb: 6.6.1 (8d0f1dd)
C            3.32278376022255        1.19334521197801        0.06342256113447
N            2.38083134506342        0.10064062852535        0.03747541440964
C            2.72702574768840       -1.18084133191911        0.04492314998239
N            1.61798623296109       -1.94382708972046        0.04267835902503
C            0.47559294094025       -1.10861839989037        0.03195982002058
C            1.01909662335719        0.21207687544680        0.03653767211400
C            0.27434975208419        1.48457249006468        0.01299879408344
O            0.84227651981880        2.58411807250668       -0.07987016064755
N           -1.02684479526560        1.24725814606500        0.06647071073834
C           -1.98516157963829        2.29512822772961        0.06034167080134
C           -4.08655254732883       -1.13212132492116       -0.65498121456605
O           -4.34113235150024       -0.06971620289543       -0.36173444466756
N           -0.75518083273855       -1.43262131737552        0.00605283419552
C           -1.26569023995552       -2.76560964650327        0.01651045952725
H            3.73822191212695        1.30548224289137        1.06600710569448
H            4.13246305953862        1.00997176120090       -0.64152655146679
H            2.79152853135112        2.11117278649856       -0.19824637518377
H            3.73177238842528       -1.55075831508210        0.03773429111544
H           -1.54347422062960        3.28966681207692        0.18911249197711
H           -2.54006115880942        2.28920664536812       -0.88392507578541
H           -2.71571221040532        2.12006895534488        0.85669565799591
H           -0.90901904309812       -3.37664901311854        0.85874165565596
H           -1.02746520231052       -3.28728180986261       -0.91786065756247
H           -2.35076804291305       -2.67931516457041        0.08442260293545
H            1.60944791017742       -2.94888343946921        0.03885757060516
