25
 energy: 105.222803950353 xtb: 6.6.1 (8d0f1dd)
C            3.29243947906731        1.18557771166347        0.06242610119262
N            2.33725310392712        0.10256117567151        0.03609194325984
C            2.71211861669562       -1.17176619880568        0.03677475126990
N            1.62733851083369       -1.95848126840707        0.03555299079974
C            0.45853064000622       -1.14045537176329        0.03869153344565
C            0.97047949327397        0.19407133122536        0.03945595150089
C            0.20604799980155        1.44129061363849       -0.00483426816257
O            0.77278233278513        2.54514127489494       -0.10258518620234
N           -1.11283805360086        1.21905937542777        0.07921621637603
C           -1.99968135774715        2.32794992752832        0.08637920344688
C           -3.91109315587099       -0.60286131143932       -0.96224891412049
O           -4.57363891178978       -0.08793788618199       -0.20726256357500
N           -0.74095018271119       -1.54124641959263        0.09479498241608
C           -1.24899517531760       -2.86032009570994        0.03207504670839
H            3.68802576426091        1.31250538176690        1.07208791818493
H            4.11811886051395        0.94901177194634       -0.60826378348474
H            2.78723610747473        2.10484514427046       -0.24087569559136
H            3.73392661017587       -1.51218063465024        0.05435470942413
H           -1.48750459210521        3.27591295188691        0.29631090274258
H           -2.52493359935571        2.40766766881742       -0.87993270731059
H           -2.75625855466272        2.14420302818277        0.85233706819993
H           -0.83380613762672       -3.44799074360127        0.85741880186823
H           -1.03151154260691       -3.34585847461310       -0.92643363837494
H           -2.34148368541683       -2.79262334202454        0.13963474959366
H            1.60511322125260       -2.96467276804230        0.03035974514018
