25
 energy: 106.330746089182 xtb: 6.6.1 (8d0f1dd)
C            3.25187862652655        1.17011008101254        0.06272503569349
N            2.27716826690806        0.10020825539839        0.02859715837819
C            2.64297385832414       -1.16902582587995        0.04810547527727
N            1.55891767317557       -1.95953953172028        0.04414339556907
C            0.39169535223752       -1.14203294878847        0.02216439871984
C            0.90880199459531        0.18488637904355        0.01008230149767
C            0.10272814664254        1.41238711328290       -0.03742484211134
O            0.67290258960878        2.51179187415880       -0.11043375784603
N           -1.22658589911144        1.19985855743470       -0.00734183252627
C           -2.05235832664916        2.34598132491313        0.08014841464588
C           -3.37700868501077       -0.38510798159637       -0.88921904684277
O           -4.26315720311672       -0.09388230515927       -0.24593063175213
N           -0.82803032635844       -1.49062283021911        0.02811032356080
C           -1.27054148792313       -2.83216278738422        0.01873430840985
H            3.62529028563053        1.31310591745978        1.07533273292452
H            4.09280421741352        0.90602982949813       -0.57062074525376
H            2.79306492495581        2.10154685547199       -0.26397063511011
H            3.65719410626990       -1.52613854359177        0.04959915525374
H           -1.45069862520904        3.19207562598479        0.38813468129398
H           -2.49641538814677        2.59918535243071       -0.87807266092456
H           -2.83347947290318        2.17581535241678        0.82141762370190
H           -0.78638801792784       -3.35451930761030        0.83818866868467
H           -1.03499286341817       -3.31608239369275       -0.93099103709928
H           -2.34862848877662       -2.87124927092616        0.16592032970649
H            1.59563372080100       -2.96071496835820        0.05344913490408
