25
 energy: 103.320915204573 xtb: 6.6.1 (8d0f1dd)
C            3.31821239384640        1.19219250899774        0.06094089020637
N            2.37083124955217        0.10472391595597        0.03571481904247
C            2.71508101678234       -1.17664677409037        0.03832958221025
N            1.60834662972185       -1.94046767259146        0.03739127926128
C            0.46478808468206       -1.10009555163565        0.03182438575452
C            1.00867559056273        0.21917925744613        0.03582441631359
C            0.26195376258183        1.48841682920637        0.00521586864854
O            0.83670216328318        2.58683333784641       -0.07701538300710
N           -1.04144061812692        1.28533450002079        0.07066018213697
C           -1.99436769812405        2.32833392640657        0.06797488090349
C           -4.07906171094803       -1.12227533271305       -0.65612892141933
O           -4.37892752571483       -0.07756368608345       -0.35260152504516
N           -0.76465302141815       -1.42605173995256        0.01848490200002
C           -1.27275608295040       -2.75659433348362        0.01281579446796
H            3.72996565627254        1.30906094855554        1.06498908829644
H            4.13156747219300        0.99578530933345       -0.63694330728413
H            2.79404057018790        2.11220436346726       -0.20901629732179
H            3.72134848641845       -1.54561435094412        0.03995131162356
H           -1.55022406728695        3.32058353034911        0.21006832693072
H           -2.54134703441167        2.31664201405374       -0.88182146885638
H           -2.71878932092712        2.13075177642652        0.86432505174696
H           -0.90977885899468       -3.35796121354420        0.85579873685110
H           -1.03349819720957       -3.28177431157737       -0.91947754100708
H           -2.35902519629751       -2.66981155922544        0.07911402343681
H            1.59457056129743       -2.94615690348082        0.03061481630543
