25
 energy: 63.465514645250 xtb: 6.6.1 (8d0f1dd)
C            3.23817629051054        1.17623799402525        0.07136747071187
N            2.24250589822280        0.11715418064832        0.03527077744891
C            2.57725249643867       -1.17927198766605        0.08895334277640
N            1.43931396443524       -1.94565383809574        0.05123123185564
C            0.31332539205979       -1.11473362081761       -0.02838396692675
C            0.85530310639137        0.17358873191178       -0.01851764340060
C           -0.01168989244551        1.31404956425585       -0.10001704212396
O            0.48341473262852        2.44477373704933       -0.13329877018222
N           -1.43172099095880        1.02890392470799       -0.09611282889397
C           -2.16258510549068        2.27164352712900        0.02830323476135
C           -2.38951133193855       -0.12877652421002       -0.48984770834117
O           -3.57302742988286       -0.23203312094603       -0.32199086296713
N           -0.98490383311096       -1.39463307073154       -0.06755072385671
C           -1.38051470894849       -2.76261739337002       -0.01744458399953
H            3.67195600793598        1.30197611046072        1.07215207632043
H            4.07271579615360        0.96491333347846       -0.61282463172688
H            2.76215926658086        2.11741939703248       -0.19738050816187
H            3.58337231863255       -1.54874790703481        0.03428152376537
H           -1.48407516679970        3.11255923286193        0.19145673175369
H           -2.68800705007518        2.44777111466234       -0.90453491722995
H           -2.84538913826129        2.20171435339878        0.87252956430331
H           -0.93934404733105       -3.26535979170669        0.84864568527031
H           -1.07366165521386       -3.27127777507521       -0.93318994294500
H           -2.46580926709434       -2.78962056352329        0.06582841714091
H            1.48117044783491       -2.94735599830401        0.04803816399206
