25
 energy: 104.437923134983 xtb: 6.6.1 (8d0f1dd)
C            3.31187996853929        1.19763822692281        0.06659076182065
N            2.37196959508531        0.10398708008463        0.03813524965360
C            2.73161529994598       -1.17801800544847        0.03922130616560
N            1.62706208216616       -1.94711719773400        0.03224893246452
C            0.47784970029034       -1.12040446235528        0.04287354258837
C            1.00896125335488        0.20723272059497        0.03959105103404
C            0.24914884242755        1.46143193431185        0.00720580678970
O            0.79224052666662        2.57699288241990       -0.07483185305364
N           -1.05375210189793        1.21009931231280        0.06995399716446
C           -1.98396128416982        2.28414289914570        0.06166000734765
C           -3.97992945610206       -0.91222462423748       -0.74238389869043
O           -4.60810206411747       -0.11122920735874       -0.26439374514669
N           -0.74086927307592       -1.48364691393505        0.06721897379613
C           -1.26065230565859       -2.80601469674895        0.02254540167422
H            3.72661170767534        1.31503555005834        1.07056637285209
H            4.12477761535161        0.99748831235310       -0.62976249864832
H            2.78066082795676        2.11400734908067       -0.20525489484088
H            3.73900755943187       -1.54702393833404        0.05120592427649
H           -1.52937889399437        3.27990615738673        0.19978147189121
H           -2.54288789305488        2.28401196153381       -0.88892557140100
H           -2.71645892541784        2.11572126465887        0.85809807092571
H           -0.91494607398976       -3.44483600777307        0.85577449468705
H           -1.02457596653494       -3.30819666060091       -0.92195891051947
H           -2.34160598984499       -2.70118638192134        0.08609122568042
H            1.58505296114274       -2.95179455261163        0.03474366598110
