25
 energy: 103.890387672076 xtb: 6.6.1 (8d0f1dd)
C            3.31875619292502        1.19641394449792        0.05984763451069
N            2.37962570685630        0.09952849186667        0.03548052372827
C            2.73166824182815       -1.18399836907539        0.03902499599204
N            1.62470658579725       -1.94905127915814        0.04350826975632
C            0.47825608835702       -1.11947508024050        0.04525544077469
C            1.01701790979746        0.20622519813896        0.04020237796326
C            0.26803309836073        1.47009357444164        0.01237053874021
O            0.82095255185298        2.57963680632472       -0.07246686783258
N           -1.03244968889973        1.22379892457357        0.06371438650943
C           -1.98104325766943        2.27828772836051        0.06397727681499
C           -3.98328356220194       -1.02838802448627       -0.71162330167278
O           -4.47556320610885       -0.09768950570949       -0.31210598951485
N           -0.74994079984745       -1.45829595994249        0.03633315995227
C           -1.27338760172960       -2.78432074778428        0.01701891041560
H            3.73118773690819        1.31370371942944        1.06401270015206
H            4.13282812081380        1.00487818081567       -0.63962752450438
H            2.78552837996847        2.11290885558994       -0.20800127519473
H            3.74113261327269       -1.54321364622121        0.03175403621267
H           -1.53765269114652        3.27378494956845        0.20155763220804
H           -2.53744406032134        2.27850923585933       -0.87895706045974
H           -2.70231942176782        2.10844616139998        0.86940989944906
H           -0.91926411274985       -3.40649771880517        0.85628202218386
H           -1.02606144213547       -3.30072212867976       -0.91750536699159
H           -2.36292990205173       -2.68737230393814        0.07514879528436
H            1.60174987198124       -2.95367005823838        0.03929172641058
