25
 energy: 105.604700541114 xtb: 6.6.1 (8d0f1dd)
C            3.27585438081817        1.17470646987532        0.06471537480281
N            2.30913449974477        0.10263438417023        0.03151425022930
C            2.68099714465216       -1.16822250828178        0.03965412092093
N            1.60024801597433       -1.95978434442209        0.04326708109939
C            0.43469123642140       -1.13821313548922        0.03138115493406
C            0.94180422467270        0.19323670936671        0.02111285068207
C            0.15235687921628        1.42900080904339       -0.01790008347507
O            0.72311404932772        2.52962158344595       -0.10628104115088
N           -1.17126013116921        1.22004052809990        0.03585012700708
C           -2.02764833584790        2.35069557177167        0.08612294229764
C           -3.66817878345722       -0.47945709289453       -0.89355445352464
O           -4.47715689884566       -0.05660236730915       -0.22482848414770
N           -0.76715299595956       -1.52022858482580        0.05563306383931
C           -1.23855961943626       -2.85196013149971        0.02812723904185
H            3.65689434769676        1.31240976237449        1.07813333407862
H            4.10626337045450        0.92506387299491       -0.58998402076089
H            2.79589537301890        2.09344066258480       -0.26433562577376
H            3.69786186298548       -1.51845620278164        0.04642363905376
H           -1.46909369745193        3.24492122207476        0.35155007846441
H           -2.52001707105962        2.51131398495186       -0.88158983930829
H           -2.79253570145662        2.17389666302469        0.84454677488928
H           -0.78501056441598       -3.41149679264823        0.84163139924639
H           -1.03370827138043       -3.33942432024848       -0.92895965352860
H           -2.31579511856909       -2.83290948865004        0.17284041339168
H            1.61628572814905       -2.96330074579876        0.04454610811096
