25
 energy: 32.333825205278 xtb: 6.6.1 (8d0f1dd)
C            3.24641179905452        1.18137285413173        0.07364165735133
N            2.25538744394181        0.13161420265008        0.02977461764905
C            2.57230329385142       -1.19964495979690        0.09019120072693
N            1.40349870588607       -1.93465500723138        0.03429268855277
C            0.31217858457602       -1.09222846446960       -0.03968313780788
C            0.85556161167633        0.18756230959169       -0.02311324519950
C            0.01395312165699        1.30931262316077       -0.09643574268700
O            0.46000174783953        2.46483509927467       -0.12826177220186
N           -1.44186518677032        0.98909210143355       -0.10366066290631
C           -2.17791497512602        2.23755568850697        0.01322741256106
C           -2.22948611595002       -0.17504928413119       -0.33834191711706
O           -3.42814941308037       -0.30146734641116       -0.38541145780429
N           -1.06055363899600       -1.33790143351554       -0.09563465266386
C           -1.41557267888851       -2.73026083960264       -0.02802005255998
H            3.69133915675921        1.29415663088147        1.07190448905333
H            4.07146867489203        0.97918631171195       -0.62393084854899
H            2.76037576520984        2.12126502953776       -0.17977157422633
H            3.57610655282416       -1.56914753847132        0.04530828808769
H           -1.50456156977941        3.09002413895624        0.15806412299443
H           -2.71170305367512        2.39466474111948       -0.91623001085032
H           -2.84413800808597        2.17907792577137        0.87070444339771
H           -0.97896721070688       -3.23486062115964        0.84446912114914
H           -1.09130712946734       -3.25087006988898       -0.93355552284638
H           -2.49646619090118       -2.76277358461097        0.04750534083705
H            1.45425525025232       -2.93860201092604        0.04491973068978
