25
 energy: 105.759087303939 xtb: 6.6.1 (8d0f1dd)
C            3.23618811745323        1.17074162263522        0.06790048466553
N            2.24304730625262        0.10866203013498        0.03740731547329
C            2.59552573438712       -1.16363713852632        0.07259210128632
N            1.50574632260560       -1.95362031971512        0.04142279195553
C            0.34073116598615       -1.13726210088130        0.00091997173938
C            0.86977842853251        0.17655946377672       -0.00265334663668
C            0.02829647103391        1.38162179627184       -0.06634262642242
O            0.59572115213693        2.47793645576377       -0.11560322123000
N           -1.31284130172807        1.14145952282332       -0.04271420557973
C           -2.10449930581147        2.31084599812375        0.05311908171217
C           -2.90384157234557       -0.27852553730907       -0.74967085341014
O           -3.93031269982241       -0.13781147887885       -0.27321477183884
N           -0.89886700474103       -1.45058009974384       -0.00844423314249
C           -1.33221055700037       -2.79597230014652        0.00082082345763
H            3.64216568233496        1.30743176017088        1.07640058866090
H            4.08172550513854        0.93899877569258       -0.59203551909436
H            2.77736802671786        2.11518940998127       -0.22477917118884
H            3.61028385008732       -1.51381453726071        0.03370534016199
H           -1.45210538186961        3.15834737911477        0.26571318825363
H           -2.60534661844903        2.51559830831325       -0.89400647683298
H           -2.85611783902440        2.19647001813150        0.83624622828143
H           -0.87343865582853       -3.30001069712256        0.85145796568317
H           -1.04863201688725       -3.29098903836063       -0.92816427216049
H           -2.42087061607423       -2.83646924501551        0.10145565797650
H            1.53695324887863       -2.95531991010216        0.05347322811196
