25
 energy: 105.999360762396 xtb: 6.6.1 (8d0f1dd)
C            3.26414114489374        1.17192039486837        0.06359584098484
N            2.29311236373129        0.10184694380327        0.02979773994049
C            2.66215045192343       -1.16783060983693        0.04343756333404
N            1.58044048033230       -1.95933207987297        0.04355036759158
C            0.41311823706835       -1.14022006966705        0.02478025227470
C            0.92529827767334        0.18946060900843        0.01405632802878
C            0.12795017237703        1.42161802458487       -0.02614259733539
O            0.69893617786558        2.52141937032580       -0.10734253687485
N           -1.19763583921893        1.21282048503298        0.01486020450363
C           -2.04061334422609        2.34850069814591        0.08383199309222
C           -3.51491464421979       -0.43354283416909       -0.90541199640815
O           -4.38620542320106       -0.08903416629499       -0.27205577736432
N           -0.79815620197764       -1.50544594557185        0.04180927863890
C           -1.24973349214380       -2.84371925690635        0.02461158729978
H            3.64050727527859        1.31413560742604        1.07633817445393
H            4.09986728291207        0.91422382613084       -0.57920665696921
H            2.79705508333774        2.09471802305778       -0.27159187899267
H            3.67758063260412       -1.52193432721071        0.05087402722558
H           -1.46651001161565        3.21990844445287        0.37538286257941
H           -2.50531443365601        2.55593255209119       -0.87973969507144
H           -2.81433969687108        2.17501760127564        0.83312188575666
H           -0.77403002717780       -3.38391773836673        0.83691178087011
H           -1.03394889491998       -3.32752249029424       -0.93062719412357
H           -2.32478857390716       -2.86654846261776        0.17857643470295
H            1.61756565521316       -2.96095067593967        0.05030642753588
