25
 energy: 104.520039305040 xtb: 6.6.1 (8d0f1dd)
C            3.30932461431229        1.19263443722870        0.06304030754732
N            2.36470388303104        0.10380394055598        0.03901329400834
C            2.73131900956788       -1.17674720384802        0.03699912736805
N            1.63444002869296       -1.95107831887428        0.03053759216626
C            0.47413932834461       -1.12646952035394        0.03915636475932
C            1.00031967420888        0.20106057280530        0.04738164993726
C            0.23571219957757        1.45327255235683        0.01207185765614
O            0.78856719205743        2.56386013699284       -0.07873447471658
N           -1.06948560742238        1.21602888316052        0.09028675977091
C           -1.98644195118086        2.29765360945640        0.07667824361496
C           -3.97238752555721       -0.77159233998914       -0.80155400510576
O           -4.63390056540165       -0.01468695871519       -0.29203214301782
N           -0.73976709076930       -1.50195757180159        0.07387940453556
C           -1.25472252236051       -2.82432162458463        0.02850818108345
H            3.72225206198872        1.31638382645513        1.06574261259606
H            4.12277813305139        0.97975574443675       -0.62840363070399
H            2.78435574188847        2.11085911359965       -0.21178612884556
H            3.74253770451956       -1.53536612545135        0.04766153742035
H           -1.52380434853458        3.28938051495526        0.23252930690956
H           -2.52437637247945        2.30305247929076       -0.87859098457135
H           -2.72444851101503        2.11646636560676        0.86196864130696
H           -0.88863386421481       -3.44736700373842        0.86115165167750
H           -1.02559452981014       -3.32436759594231       -0.92013631847633
H           -2.34050074803260       -2.73045884096709        0.10163902526084
H            1.59714052138722       -2.95558835684908        0.03016015749780
