25
 energy: -2.147016665640 xtb: 6.6.1 (8d0f1dd)
C            3.24530531246598        1.17873787143937        0.08130527639546
N            2.29465033154902        0.11078662873140        0.03239199101648
C            2.59633621416749       -1.23517815364265        0.04432810742850
N            1.40353153194983       -1.93190110815174        0.02220562629016
C            0.35773081396299       -1.06484621458216       -0.00415003478769
C            0.89956397394247        0.21264619097162        0.00997253039625
C            0.08139280458412        1.34952146765332       -0.02001644255748
O            0.48022437071165        2.51894545464745       -0.03449787187753
N           -1.32624977088796        1.01614946977343       -0.05025724819616
C           -2.20232086728959        2.17548455903831       -0.02828286404001
C           -1.95199010687780       -0.21271507673408       -0.14037293257321
O           -3.15183312709721       -0.37440245284198       -0.18731704811524
N           -1.00478720382965       -1.29996452931945       -0.05440348366309
C           -1.45731255541828       -2.66980130943907       -0.04697247400755
H            3.71737820419526        1.24522567359495        1.06780475808513
H            4.03348839265049        1.02599944346008       -0.66311970929563
H            2.71564257976498        2.10804714329150       -0.11878338618279
H            3.58657817946238       -1.63471784569704        0.04617260114931
H           -1.60734439471888        3.08797514809130        0.03458322538883
H           -2.78480924240357        2.19074318680014       -0.94419314402550
H           -2.85975625000533        2.10746611839860        0.83600109960841
H           -1.10493088914343       -3.20775396659003        0.83888184857916
H           -1.12326265440475       -3.19345797637541       -0.94665522313266
H           -2.54139919115159       -2.62667126583058       -0.03271641883780
H            1.39148631782188       -2.93757092577306        0.01218704509927
