25
 energy: 19.874964638363 xtb: 6.6.1 (8d0f1dd)
C            3.24779681495730        1.18449601692013        0.07110247968295
N            2.26472435228450        0.13067311069602        0.02784481409469
C            2.57032546115030       -1.20939141388975        0.07841137372763
N            1.39447898731352       -1.93127325072577        0.03340721017641
C            0.31187048031103       -1.08268407534115       -0.03029253586342
C            0.86047357476401        0.19496818992866       -0.01634454619533
C            0.02646425894514        1.31186411013798       -0.08071835121753
O            0.45159460961969        2.47437538963201       -0.10996622488354
N           -1.42908917300401        0.98280331287716       -0.09226994947448
C           -2.18616476839937        2.21994609303669        0.00212600781508
C           -2.16148539435040       -0.20521248898615       -0.28249197586017
O           -3.35608543112448       -0.34540745210616       -0.38586684174198
N           -1.07071251289289       -1.32085469105054       -0.09117552087658
C           -1.43038875190861       -2.71456149932314       -0.03502903615752
H            3.70079169697910        1.28783973803185        1.06630632653811
H            4.06326911840186        0.99459325080653       -0.63902038823120
H            2.74578668622858        2.11878314129756       -0.16864947885580
H            3.57364941109906       -1.58526085567184        0.06219359630912
H           -1.52832355896522        3.08758922401981        0.12530607836378
H           -2.73482703048412        2.34714516752764       -0.92296314448244
H           -2.84331889515011        2.16207753629145        0.86551509442665
H           -1.01023156840505       -3.22568230472746        0.84096130017107
H           -1.09735824440190       -3.23388217810226       -0.93814803322174
H           -2.51152008404503       -2.73472798445631        0.02505361599420
H            1.43454616670865       -2.93665513910693        0.04314557013052
