25
 energy: -5.428691685010 xtb: 6.6.1 (8d0f1dd)
C            3.24333522628864        1.17552274624559        0.08370003587705
N            2.30013525419463        0.10555634234006        0.03390601340272
C            2.59874857188265       -1.23786022563219        0.03633223661127
N            1.41256373707240       -1.93576313862381        0.01236810313744
C            0.37891042375277       -1.06281879576780       -0.00519914719848
C            0.91054905845809        0.21939063033833        0.01268802132670
C            0.10025411279723        1.36949266054181       -0.01143624059155
O            0.49200519260303        2.54124559107052       -0.01665608508977
N           -1.29491654118606        1.03450935619845       -0.04150412622999
C           -2.21053670488546        2.16320662420141       -0.03888863908667
C           -1.88205156739825       -0.20408463101955       -0.09440932662432
O           -3.08175965128052       -0.37931798038182       -0.12532238270726
N           -0.97063876603023       -1.30020202059062       -0.04595204979149
C           -1.46459087445488       -2.65626611743976       -0.05324203531057
H            3.71921728656548        1.23108994563638        1.06792122674748
H            4.02193187979773        1.03173053100680       -0.67009867163058
H            2.70721362043902        2.10404491529580       -0.10435015337007
H            3.58199525372123       -1.64472574540131        0.04411513805772
H           -1.63602315653754        3.08806970003229        0.00485995325279
H           -2.80451053591653        2.14241329731293       -0.94932382075596
H           -2.86796593864816        2.09181813456484        0.82608268008362
H           -1.13743811855731       -3.20238492001104        0.83597177499474
H           -1.13362152996801       -3.18411400960501       -0.95120463504405
H           -2.54940191095569       -2.59030594240401       -0.05356818993807
H            1.38086882666902       -2.94063739862063        0.00117502153053
