25
 energy: 91.902966096872 xtb: 6.6.1 (8d0f1dd)
C            3.23498827980269        1.17340693878913        0.06989048902867
N            2.23964147846844        0.10963945121111        0.03678227172958
C            2.58216752158370       -1.16646830458709        0.08151228419253
N            1.47503190475249       -1.94796331238574        0.04107179701624
C            0.32367198435253       -1.12837526891432       -0.01555609435255
C            0.86038431075348        0.17186277726847       -0.01248340920776
C           -0.00466304342653        1.34311490044594       -0.08939374028527
O            0.53644947101075        2.45382596211550       -0.12109819072180
N           -1.37322416914876        1.09560381422244       -0.07286807288061
C           -2.13738339378828        2.29688524952122        0.04046056176206
C           -2.62932356508017       -0.19534145889178       -0.62155813834839
O           -3.74296201466219       -0.17959195861033       -0.28880313379892
N           -0.94181034250878       -1.42918261957057       -0.02990937615654
C           -1.35619985925900       -2.78463632379326       -0.00836149193290
H            3.65460557966768        1.30502673549984        1.07478284937838
H            4.07635710175684        0.95261233320147       -0.60246679537245
H            2.76755034889272        2.11660548757729       -0.21069736437912
H            3.59431525211080       -1.52502701715800        0.03311690707698
H           -1.46781671989622        3.13771653749742        0.22790570280811
H           -2.65036739752319        2.48917758378100       -0.89897329091115
H           -2.85162338598606        2.20227306165829        0.85735299768932
H           -0.90859816678951       -3.28802260419176        0.85111791611427
H           -1.06196693626028       -3.28468873079976       -0.93148110012353
H           -2.44354341946394       -2.81653810557156        0.08425103800801
H            1.51176732663962       -2.95027967243380        0.05103987543722
