25
 energy: 106.608258658748 xtb: 6.6.1 (8d0f1dd)
C            3.24459668045232        1.16910753543493        0.06366166342909
N            2.26362177537403        0.10037343656566        0.02940527978217
C            2.62601794176292       -1.16929783822855        0.05437434836463
N            1.53972738791069       -1.95927343902026        0.04477207624999
C            0.37273185154102       -1.14296629390731        0.02087206965906
C            0.89390349025070        0.18064429194793        0.00743727578704
C            0.07826124053165        1.40248896530138       -0.04721691725182
O            0.64967793017841        2.49998349258389       -0.11361041923190
N           -1.25490503350097        1.18514522298876       -0.02520477527161
C           -2.06967367182159        2.33862931259472        0.06627621881576
C           -3.22243265617115       -0.35561811706179       -0.85392355557576
O           -4.16156815712889       -0.11351505485373       -0.26611930847153
N           -0.85366370876132       -1.47558194225604        0.01392519069887
C           -1.29203434969134       -2.81884329468158        0.01230508816801
H            3.61759311737359        1.31350808748781        1.07885489372839
H            4.08988418770426        0.91818753097621       -0.57605274459668
H            2.79278716305636        2.10860649320512       -0.25263524606421
H            3.63872428539606       -1.52929238132845        0.04469749995907
H           -1.44618599882128        3.17973921791775        0.34814020936117
H           -2.53141178280287        2.58614080752702       -0.88970649048084
H           -2.84618522984257        2.19392250647640        0.81635566284021
H           -0.81131877414544       -3.32684803752280        0.84303205357160
H           -1.03025307202440       -3.30552276214658       -0.92856361965286
H           -2.37474669225374       -2.86629128689148        0.14409645935118
H            1.57466633468620       -2.96049822549562        0.05370218818053
