25
 energy: 105.442843406935 xtb: 6.6.1 (8d0f1dd)
C            3.28457481744894        1.18072905508500        0.06287752001888
N            2.32355577281601        0.10337839655179        0.03360500324743
C            2.69773999116013       -1.16883151805443        0.03754171975654
N            1.61639607492492       -1.95887568177145        0.04065663562121
C            0.44935177052845       -1.13966227350059        0.03584563825903
C            0.95635670670290        0.19445818700610        0.03155241772347
C            0.17914270645909        1.43492416078400       -0.01122055791357
O            0.74684993275837        2.53747207018069       -0.10503286072739
N           -1.14262305392006        1.21974844116286        0.05768585349204
C           -2.01279352055176        2.34140059852614        0.08825805308067
C           -3.82090470727936       -0.52535980509542       -0.90695153582190
O           -4.54315405157472       -0.03440035662202       -0.18355055345434
N           -0.74719027316054       -1.53700242837688        0.07149758334834
C           -1.24234614861341       -2.86386900832721        0.02912702467595
H            3.67139502332897        1.31204565901199        1.07651824618445
H            4.11364410001918        0.93679613494377       -0.59874104355786
H            2.79075892883459        2.10030382000741       -0.25558256856435
H            3.71653344984541       -1.51507584127077        0.04557180935920
H           -1.47537028920443        3.26275186325662        0.32520823962680
H           -2.52452066229294        2.46132914316739       -0.87999015251177
H           -2.77247036637502        2.16111308368811        0.85134699654860
H           -0.80952279111308       -3.43021473643590        0.85349526818085
H           -1.03318630487204       -3.35339064692221       -0.92731172776012
H           -2.32670792609105       -2.81146897709022        0.15653333987213
H            1.61289215299281       -2.96352583897620        0.03398533041199
