72
 energy: 29.071546281000 xtb: 6.6.1 (8d0f1dd)
N           -0.37832072332911        1.82502146104590        1.87155062570509
C           -0.96312035967132        1.34904179533994        0.93556536854130
C           -1.94818863356792        1.09595100582678        0.11713672901187
C           -2.84105436874747       -0.01637542877101        0.34813788880593
C           -3.92106833380957       -0.24200444070094       -0.51840589388061
C           -4.74800204360041       -1.32844346478312       -0.34750409314086
O           -5.76831724487557       -1.67809350260363       -1.18806308660322
C           -6.05671719874620       -0.85627268527735       -2.29351852450623
C           -4.54442017770858       -2.19221080819343        0.74576735045628
O           -5.41020362153496       -3.23331119353554        0.81541075990581
C           -5.31535235479736       -4.11622632468971        1.89216277934349
C           -3.51864294684825       -1.93442601741153        1.63411735917421
C           -2.68138694759126       -0.85398227730952        1.44505514237947
C           -2.04408697795198        1.92198761514202       -1.12525270632451
C           -1.44470853248360        1.11870017845289       -2.27672506039849
C            0.04853945474331        0.93372573432932       -1.96010189655623
N            0.45137140463369       -0.06186593496353       -1.00535422361349
C            1.80184115424286        0.14949674429666       -0.56706432247140
C            2.91573000602651       -0.29639809581144       -1.54959464535518
C            4.26690946804550       -0.17754072965690       -0.90261482991623
C            5.01212813684566        0.98276279474024       -1.00178824143945
C            6.26281043290514        1.08573587857099       -0.40464740308142
C            6.79385177714839        0.02840932834964        0.31019504007573
O            8.02121667353988        0.01158218141977        0.91396569482343
C            8.84494998075644        1.14478464925762        0.79717673880460
C            6.03983515348860       -1.16170699894098        0.42836992807179
O            6.64999480293532       -2.16116275806696        1.13496486469497
C            5.99814951733317       -3.39940923585950        1.25909710950701
C            4.79662850620429       -1.24434091097632       -0.17355853608990
C            0.00882331512084       -1.41862385916844       -1.13378278258514
C           -4.36329120709890        4.51028566584592        1.25614498159042
C           -4.53450117323179        3.20078322935961        1.90318493339853
C           -3.04832644888524        5.19583443516851        1.21180100727867
H           -4.13467821077909        0.43954626011607       -1.33065570992679
H           -6.33799814254319        0.15922023146573       -1.99208273357147
H           -6.90638658187743       -1.33094438328165       -2.78070784646290
H           -5.22928232666054       -0.78822970206315       -3.00836961926912
H           -5.46704415686084       -3.60525463411504        2.84846378599250
H           -6.12874338138280       -4.82146837132956        1.72917320768750
H           -4.35547256088417       -4.65027737629585        1.91042274672273
H           -3.34041172029077       -2.58822094537724        2.47036894035785
H           -1.90041955997732       -0.65386934109296        2.16140068307619
H           -3.08362776333645        2.19537752448359       -1.32249411748806
H           -1.46496633490464        2.83342792144699       -0.96009204084348
H           -2.01099908869411        0.18996848835386       -2.36342478104651
H           -1.55285904553425        1.66981075068659       -3.21774822375731
H            0.39692825663043        1.86338823071074       -1.53404780808311
H            0.58663101610896        0.80666661786179       -2.91938482835007
H            1.90030300358701       -0.39267421727571        0.37011066580570
H            1.94218747457733        1.22014611495234       -0.35055875903093
H            2.88365488479189        0.31763327452042       -2.45158209158966
H            2.73359556567543       -1.33450345405727       -1.83538025150921
H            4.62680595773339        1.82452983659678       -1.55865301784190
H            6.82643323235327        1.99845276096256       -0.51407191261201
H            8.38416620181317        2.02658420696885        1.25359921591198
H            9.09104962766971        1.36456136701280       -0.24865025212249
H            9.76109465338928        0.90242728857780        1.33528875871752
H            6.67380160531720       -4.03675712212941        1.83009959400763
H            5.05412780949637       -3.30381394593647        1.80304297396365
H            5.81146462832601       -3.85989085826846        0.28281951572843
H            4.22075019281552       -2.15396399474627       -0.09664430207986
H            0.39584939341973       -1.91514983845849       -2.03086721042965
H           -1.07955922787219       -1.43808370099115       -1.16863389653323
H            0.34502580870608       -1.96511743431335       -0.25090339247646
H           -5.23792733803993        5.01627442304657        0.89163307161664
H           -3.57059780368122        2.71550732513774        2.05918126954008
H           -5.16479287811444        2.52183096264839        1.32051833480566
H           -5.03191558651636        3.29728334356849        2.88005389071057
H           -2.21094139482015        4.57181705023835        1.47186106169901
H           -2.85125318231995        5.64789554185352        0.24050574867544
H           -3.11383725213348        5.98199080990676        1.95593975544992
H            0.57398416926938        1.66118245101018        2.11296535944050
