72
 energy: 9.226503939433 xtb: 6.6.1 (8d0f1dd)
N           -1.23514075602823        2.48178840241254        2.17956491174847
C           -1.33938944448316        1.99656839037492        1.02456362970680
C           -2.64222543305869        1.97205716507498        0.28051134790921
C           -3.27065265236281        0.57117301097899        0.40249246170666
C           -4.24696341371910        0.16842636371793       -0.52423236898044
C           -4.84097652883056       -1.07688350749109       -0.47918750262333
O           -5.80870805163612       -1.53293560664367       -1.33175769122065
C           -6.32424756993214       -0.65382283966774       -2.29873991233515
C           -4.44401078103846       -1.98896449365058        0.51855931778115
O           -5.07689038313188       -3.19497718182942        0.48832685717492
C           -4.79308194967499       -4.11567505005476        1.50826638083542
C           -3.46531700641597       -1.60879874772266        1.41638025340355
C           -2.88577702981904       -0.34924270081679        1.35866415986494
C           -2.22298727044017        2.24551552378687       -1.18361890163903
C           -1.31593348554900        1.16746792254553       -1.81426450952258
C            0.04035788397841        1.09569871453675       -1.21032377732993
N            0.62730742183454       -0.09742823725250       -0.75904237695898
C            1.97731489182567       -0.03882058497868       -0.28580014671765
C            2.96828821890878       -0.51653583523736       -1.36286673458169
C            4.37703317042279       -0.39402011891991       -0.88280757447330
C            5.09273831099829        0.77738718078091       -1.04881194985855
C            6.38464458762389        0.88950641895776       -0.55606377245326
C            6.97874576953521       -0.16192692352845        0.11978162761822
O            8.25093573109524       -0.16636755478675        0.61730777312622
C            9.03687422984941        0.97870656833486        0.41730299658225
C            6.24593735474937       -1.35187680949987        0.31758899483235
O            6.90618186708816       -2.34029344525003        0.99052223413330
C            6.25675175594498       -3.57106500904414        1.17860052326714
C            4.96117424780510       -1.44641130761945       -0.18335664218814
C           -0.05060549989189       -1.35945576274767       -0.76121807454422
C           -3.68438086917351        3.18999924923847        0.72331949555660
C           -4.40081252030684        2.82196004451710        2.01683635095681
C           -3.17408225204333        4.60630536784130        0.74274300541527
H           -4.55308759351990        0.84788030615237       -1.30845194353170
H           -6.74557242304068        0.24797490162235       -1.84093890013429
H           -7.11443779080864       -1.20546189453359       -2.80623664084868
H           -5.56654304265984       -0.36139176131227       -3.03344032375234
H           -4.99982322781137       -3.69891805437535        2.49999261275707
H           -5.45237250098918       -4.96396269542739        1.33026768603953
H           -3.75260283966327       -4.45415747241302        1.47051385710567
H           -3.12946126254741       -2.28835023538102        2.18302315412472
H           -2.11074604084967       -0.10814481321797        2.06542810026916
H           -3.10259875703670        2.44399890112087       -1.79711319011589
H           -1.62579246328661        3.16159105720392       -1.15264449893159
H           -1.82270889341889        0.20635817891187       -1.78291165474859
H           -1.16026544112709        1.42994018744540       -2.85801952978896
H           -0.50306967486286        1.68200178504612        0.23328176993676
H            0.75668603838101        1.85820531538551       -1.49214012410707
H            2.11159718635092       -0.65679888925385        0.60717532624533
H            2.21576812669800        0.99112068108918       -0.00777524592984
H            2.80470261441919        0.10286766146916       -2.24626601614645
H            2.72522079067797       -1.55267633476448       -1.60460745370248
H            4.64827362844528        1.61148807221239       -1.57167615052673
H            6.92379713400313        1.80557524397683       -0.72550825884725
H            8.59877999731441        1.85730741634539        0.90295717605061
H            9.18041035167171        1.18966646211968       -0.64866094057483
H           10.00073980373563        0.75844135878195        0.87339468058907
H            6.97445532343829       -4.20850064751070        1.69458021224718
H            5.36198554132438       -3.46244213239904        1.79936252656607
H            5.98320301769726       -4.04037422078695        0.22623121651046
H            4.38604819657833       -2.34906886835360       -0.04231323121741
H           -0.12632098405374       -1.76373625925433       -1.78160499640659
H           -1.05240182954283       -1.27449287854538       -0.32937247612029
H            0.50104959498253       -2.08184289133731       -0.16628728259831
H           -4.50615063064891        3.32651847062979       -0.00886276454108
H           -3.63802403327269        2.69194742306116        2.77741930294325
H           -4.95367983997918        1.89488011173716        1.87309717050156
H           -5.16073746877580        3.56297251430771        2.29282016495466
H           -2.33361258846041        4.64608257852282        1.40404593984849
H           -2.91120267771885        4.95103828704537       -0.25600940031221
H           -3.96835785775369        5.27427219582774        1.09561644577939
H           -0.32528620010476        2.51246289398105        2.60199484917876
