72
 energy: 17.094798978636 xtb: 6.6.1 (8d0f1dd)
N           -1.17074126501275        2.40625115882343        2.15047387175610
C           -1.28531903784008        1.97322847682171        0.97580346731887
C           -2.60705485244567        1.94925120729221        0.27730990489002
C           -3.24699509232929        0.54955509469439        0.41358541337520
C           -4.22723002600539        0.14845843034176       -0.51399272289568
C           -4.83709302425989       -1.08904828871154       -0.46585419188175
O           -5.80456646239836       -1.54202220180209       -1.32205711056055
C           -6.30637548234169       -0.66583413607634       -2.29991251686985
C           -4.45353248363550       -1.99832857006705        0.53832827161773
O           -5.09720617293231       -3.19851442631140        0.50980293438211
C           -4.82470242775572       -4.11733638603474        1.53398092275218
C           -3.47366768568350       -1.62270462761077        1.43718572014114
C           -2.87766717534990       -0.37152448435815        1.37585830143491
C           -2.22917955532249        2.23005618898653       -1.19148526623701
C           -1.33544814645505        1.16128761499950       -1.85247442922037
C            0.03884413369491        1.08382114437103       -1.29016820726807
N            0.62258456690035       -0.10616071309286       -0.81550740501815
C            1.96640850829641       -0.03452702629718       -0.31983009068388
C            2.97375049599054       -0.50780688523816       -1.38288864799368
C            4.37763468774951       -0.38074859513536       -0.89003416101763
C            5.09385264518361        0.79117168880312       -1.04795794264966
C            6.38189210991437        0.90206745247294       -0.54446476424374
C            6.97159759233681       -0.14970627661558        0.13478576679694
O            8.24164815143777       -0.15447538679425        0.63899118092035
C            9.02794966464365        0.99092877438238        0.44182493480914
C            6.23676461526529       -1.33930220807925        0.32677064225874
O            6.89227175487081       -2.32922152591109        1.00313299132811
C            6.24146310697189       -3.56037593718029        1.18473238495218
C            4.95600105508012       -1.43271675955070       -0.18539022217804
C           -0.05140547489722       -1.37004279428418       -0.80101213884484
C           -3.64516229761581        3.22768288694672        0.75815771409492
C           -4.37236687348264        2.82819818678007        2.03179386921097
C           -3.11533088633521        4.62524300527820        0.79084755170847
H           -4.52694706104344        0.82328790888920       -1.30597889795773
H           -6.72084646025298        0.24436041417911       -1.85234195905094
H           -7.09963349288564       -1.21317736117752       -2.80771033518943
H           -5.54262202475825       -0.38618735448409       -3.03330923026389
H           -5.02858760802566       -3.69358883034722        2.52315612925377
H           -5.49269817095306       -4.95949538854293        1.35910278506514
H           -3.78778560150386       -4.46689727549070        1.49996979906304
H           -3.14489290744980       -2.30147944998167        2.20726480060546
H           -2.10018855490676       -0.13923863042706        2.08194098866292
H           -3.12390788020524        2.45277732375138       -1.77563263851442
H           -1.62033834727281        3.13797386442783       -1.15958308835210
H           -1.84071036815716        0.19981031245851       -1.82180501263671
H           -1.20290559437132        1.44126986214580       -2.89164052313344
H           -0.45549105708931        1.70633236157648        0.12245947295681
H            0.76453024973439        1.81445108604331       -1.63067657827369
H            2.09635695449162       -0.64942716775193        0.57608949405563
H            2.19404761187195        0.99749576215543       -0.03924782560544
H            2.81551183469026        0.11193768756624       -2.26619398963686
H            2.73543654578439       -1.54479154529265       -1.62679296115577
H            4.65336909931334        1.62527951320321       -1.57387395794339
H            6.92289357334009        1.81747974730887       -0.70970487053085
H            8.58640492042092        1.86908491811011        0.92496982038407
H            9.17597023908977        1.20166351284592       -0.62370750803536
H            9.99025412850126        0.77277106713962        0.90231032378932
H            6.95484869336761       -4.20020015913233        1.70427718977412
H            5.34304570302205       -3.45162358510273        1.79965190562266
H            5.97373858713391       -4.02797952001451        0.22977542940036
H            4.38004699309681       -2.33599951659181       -0.05094497478161
H           -0.10464274968737       -1.79487336004439       -1.81655872763723
H           -1.05980363098454       -1.28251753748207       -0.38488252752006
H            0.49183867232460       -2.08055514414189       -0.18723192205692
H           -4.46048910127341        3.41002469975540        0.03808897172654
H           -3.61928346888704        2.62796110597006        2.78587950914624
H           -4.96055591787494        1.93327016402213        1.84028837070407
H           -5.11287242286298        3.58098292374333        2.33397511834026
H           -2.26604015928251        4.63715128152239        1.43691415001588
H           -2.87228748616295        4.98006917744795       -0.20958680842554
H           -3.90106788463397        5.29176787658250        1.16552990846666
H           -0.26112246352168        2.44972150427122        2.56849670914844
