72
 energy: 32.452825561353 xtb: 6.6.1 (8d0f1dd)
N           -0.38544130081007        1.75906125641886        1.87680503556846
C           -0.93984643269449        1.36235922926002        0.88502451052001
C           -1.97727789021486        1.13747033303388        0.11962949239503
C           -2.86021827563592        0.01909921551831        0.35822183284673
C           -3.93769746077782       -0.21406498369103       -0.50984426854872
C           -4.74886078919729       -1.31102409552706       -0.34511581037202
O           -5.75866560160742       -1.67483004063320       -1.19475564025697
C           -6.06890863031551       -0.84603401221405       -2.29488238808295
C           -4.53840434815013       -2.17357428350583        0.74673089475165
O           -5.38980531053827       -3.22538912532981        0.80311310960131
C           -5.28080277735727       -4.11427856111158        1.87389861674733
C           -3.51489837997310       -1.91025216338107        1.63526803302582
C           -2.69131206640593       -0.81981712772773        1.45156705850498
C           -2.06640283156606        1.92886831701429       -1.13281373324034
C           -1.46532611462707        1.11820861083273       -2.27390572663568
C            0.03251269051836        0.91182483177233       -1.99694930868045
N            0.43334064467917       -0.04476733237312       -1.00741078415302
C            1.79520944756012        0.15616853705507       -0.58321916691472
C            2.92248218734425       -0.30699238611607       -1.55012446004963
C            4.27587722396066       -0.18651008251696       -0.90326756102723
C            5.02207575358723        0.97325736825850       -1.00480013941255
C            6.27460109818590        1.07500502008451       -0.41051425162956
C            6.80903453251799        0.01778014048097        0.30202438404158
O            8.03974579440729        0.00189723383548        0.89832114626747
C            8.86057375084200        1.13672016681945        0.77493071232697
C            6.05479414589396       -1.17199518130981        0.42272084730129
O            6.66666008660113       -2.17205958505043        1.12846270638156
C            6.01436787544862       -3.41010889209332        1.25626713637353
C            4.80953899758859       -1.25336396203040       -0.17660588001062
C           -0.00070563081604       -1.40212225006737       -1.11969932613556
C           -4.30776150595829        4.43635724616768        1.20468139949991
C           -4.51435689731070        3.17043306052212        1.91893740764932
C           -3.00604647534116        5.14734652462545        1.20632502704965
H           -4.15859747624178        0.46560367530947       -1.32087186811288
H           -6.36399668481407        0.16380274188687       -1.98673934525111
H           -6.91396902710993       -1.32612954563920       -2.78692168248369
H           -5.24584282920074       -0.75997860185818       -3.01252092656661
H           -5.43630012034874       -3.60664561950605        2.83061497067938
H           -6.08384717881949       -4.83105708978131        1.71141256679472
H           -4.31437378258200       -4.63550709785617        1.88791588218429
H           -3.32268929092596       -2.56724058729522        2.46518712421014
H           -1.90989180615407       -0.61715136983190        2.16537411886814
H           -3.09576693057984        2.20776889857788       -1.35754950744996
H           -1.48180867844246        2.83197634408818       -0.97171164702816
H           -2.04454677829108        0.19621994899460       -2.34453361494879
H           -1.59435906441899        1.67242629517812       -3.21554276925468
H            0.34578847545266        1.83193174751720       -1.48412866063338
H            0.56348935451047        0.73483895433153       -2.97303569270208
H            1.89011480376428       -0.39917940483092        0.34799972627581
H            1.93355639780586        1.22099507860703       -0.36880085943612
H            2.89670088577874        0.30219440795272       -2.45373610224673
H            2.74960908889922       -1.34687078837778       -1.83693832044818
H            4.63602408622556        1.81469233846261       -1.56175672482011
H            6.83842080095289        1.98686739609300       -0.52228680001262
H            8.39946985755575        2.01723157626646        1.23307400441700
H            9.09950858074501        1.35592343183028       -0.27289153855405
H            9.78050567776282        0.89775361707223        1.30791606266949
H            6.69108356109499       -4.04964664287785        1.82427866691375
H            5.07320868655229       -3.31197987804314        1.80409000610730
H            5.82199797249579       -3.87101068018818        0.28114566101845
H            4.23424493201418       -2.16333349832181       -0.09978449451037
H            0.41856120138228       -1.88624619457298       -2.01139819017039
H           -1.09534893151159       -1.43242195465049       -1.13653585246587
H            0.33314730859107       -1.94675909995741       -0.23536427046704
H           -5.17476657701170        4.93390421418501        0.81450782243028
H           -3.56523546339933        2.66511798765374        2.10304930775604
H           -5.15910900205342        2.48304019444987        1.36529147531773
H           -5.00853114743975        3.34316800592121        2.88615243394937
H           -2.14634766875400        4.56483455665417        1.48091297356792
H           -2.80607920052263        5.61268317728590        0.24517858917294
H           -3.13856345258038        5.90489735089808        1.96767102645822
H            0.58193030015999        1.60929203342266        2.05897654407097
