72
 energy: 48.985859655911 xtb: 6.6.1 (8d0f1dd)
N           -0.47914142011876        1.61307940461549        1.91713934243666
C           -0.89858752692667        1.39200829469968        0.80280557301118
C           -2.02866120390139        1.22846160248125        0.12797472293912
C           -2.89448033551718        0.09303544738153        0.37150331296355
C           -3.97061939442734       -0.15604442887744       -0.49583166598855
C           -4.75936168188028       -1.27040571989146       -0.34654410328491
O           -5.75492371893282       -1.65071815374767       -1.20659674738449
C           -6.09845224905829       -0.81964759333076       -2.29762308299506
C           -4.52994441519196       -2.13815376739646        0.73654829109877
O           -5.34425964507793       -3.22136697091189        0.76802729333796
C           -5.21185419434844       -4.11462017664141        1.83321318165062
C           -3.51106730910983       -1.86062236264668        1.62861785851101
C           -2.71318641598897       -0.75076211985769        1.45969485059572
C           -2.10174668993847        1.96620960382431       -1.15186815574090
C           -1.49273037657428        1.09923376944562       -2.23836422000314
C           -0.00069039514981        0.89196952181251       -1.99767551039997
N            0.41716581215727       -0.04664250674718       -0.98651490082085
C            1.79883071773706        0.11406463517314       -0.59474820564515
C            2.94032768937389       -0.34248618070367       -1.55142335649995
C            4.29542064883277       -0.20938195633755       -0.90600410303681
C            5.03933229508873        0.95137606068182       -1.01159502458048
C            6.29573134523034        1.05181268043080       -0.42446463654803
C            6.83780630191315       -0.00447250524269        0.28446599387221
O            8.07561792941540       -0.01856672462657        0.86457307137902
C            8.88968220068522        1.11946160220912        0.72797218615870
C            6.08396350786023       -1.19361239033242        0.41353640460386
O            6.70062000774181       -2.19479759344410        1.11372999255612
C            6.04733575589426       -3.43169601767281        1.24948795601162
C            4.83512979262982       -1.27398760170943       -0.18029568929815
C           -0.01692385372326       -1.40741882234644       -1.11989322834498
C           -4.19028807794791        4.27997138975675        1.11435159949651
C           -4.47205657489329        3.11326086075058        1.94973481893414
C           -2.92495141423703        5.04202579862712        1.18697395857352
H           -4.20769961852265        0.51615410235138       -1.30976342381684
H           -6.41663476331784        0.17850014060475       -1.97508622494609
H           -6.93461831295053       -1.31241825245208       -2.79571072871951
H           -5.28226461652347       -0.70342440191873       -3.01850846890423
H           -5.37734869003021       -3.61439348336259        2.79123927793241
H           -5.99476951765552       -4.85374466610333        1.67182768907341
H           -4.23217515625069       -4.60907643912177        1.84473979285259
H           -3.29727788989160       -2.51914937494757        2.45124618983915
H           -1.93289662811857       -0.54541623947886        2.17203334296402
H           -3.11756219931252        2.23761716627403       -1.42423741210696
H           -1.50908804464373        2.86861250235953       -1.02263690302250
H           -2.06457960982110        0.17716680165910       -2.27382671714492
H           -1.60894497046322        1.61808468742676       -3.18630921156307
H            0.24515534093594        1.75488196359682       -1.32694015604691
H            0.56070961035946        0.84815464306747       -2.95553710438749
H            1.90030860912888       -0.45638430159536        0.33249496639340
H            1.95716020686282        1.16831675678982       -0.36419348305483
H            2.91155607381935        0.26521654142697       -2.45277292439491
H            2.78133990050970       -1.38424472401792       -1.83877090856288
H            4.65021335195161        1.79217545160266       -1.56753138415579
H            6.85755437116251        1.96318816425154       -0.54442970363970
H            8.42824283801569        1.99749097158277        1.18989494515490
H            9.11355754024894        1.33809711780459       -0.32361915258943
H            9.81753749982757        0.88846438325829        1.25052856426648
H            6.72730714138183       -4.07427454937075        1.81054268918045
H            5.11272414624150       -3.32812924959757        1.80669585242997
H            5.84301768618923       -3.89454225262510        0.27760934990662
H            4.26027493910178       -2.18408278674558       -0.10217940622513
H            0.37954358834012       -1.88837944482815       -2.02437002224862
H           -1.11138517216615       -1.41106340060943       -1.05730057640365
H            0.31274469083149       -1.94657002163949       -0.23158447648195
H           -5.03912826085813        4.75973933764461        0.66737259413529
H           -3.56382150712325        2.56801136831883        2.19959535994336
H           -5.14110422404907        2.42223823145610        1.44846458487212
H           -4.95734724436850        3.43376174573964        2.87481087794145
H           -2.01881905408846        4.56186586244659        1.50015144176607
H           -2.73941245508467        5.51755347265207        0.23831357585389
H           -3.18064160597249        5.75718628585513        1.94616250968070
H            0.47454155715421        1.67335356465740        2.15512326288276
