72
 energy: -4.845121991301 xtb: 6.6.1 (8d0f1dd)
N           -1.42981893235378        2.71885193047183        2.23730375409331
C           -1.50832443339585        2.10766518045111        1.14092124360375
C           -2.73425656349618        2.04335636502360        0.26916834355147
C           -3.31658711372999        0.63461551161408        0.35268089950687
C           -4.29427906028481        0.22876204960044       -0.56077572182968
C           -4.84765554766291       -1.03602681610725       -0.51827239467662
O           -5.81702613773080       -1.50124208686949       -1.35767009873330
C           -6.37863629219699       -0.62031660863890       -2.29564186217159
C           -4.41087461305030       -1.95466102519162        0.46119255462953
O           -5.01270371318682       -3.17638010101792        0.42728817178042
C           -4.69600858843994       -4.10504076713091        1.43181665886167
C           -3.43503855462825       -1.55933675073501        1.35525060229343
C           -2.89373157710406       -0.28041685262599        1.29873602660426
C           -2.20269808289674        2.28861709263743       -1.17362656772488
C           -1.27062084886856        1.17928029509532       -1.69809314815342
C            0.01835955621193        1.12351629810853       -0.96304148148192
N            0.63371552384158       -0.06079212771762       -0.58706194044183
C            2.00164612270922       -0.03977011983821       -0.18146827756533
C            2.94389666501908       -0.53701864418197       -1.29742686344721
C            4.36530583124807       -0.42700688294837       -0.85040049805692
C            5.08091223566547        0.74016315018496       -1.04521828445494
C            6.38647410409180        0.85331685754209       -0.59098971356586
C            6.99355702664029       -0.19800569476380        0.07291612529403
O            8.27159844978736       -0.20184451229999        0.54934948415939
C            9.06148466163878        0.94031611596017        0.34400507802537
C            6.26608446345138       -1.38953301916588        0.28931868913758
O            6.94389952173747       -2.37359591545188        0.94673340408160
C            6.30164070767767       -3.60376820969385        1.15954359274245
C            4.96678173307457       -1.48436674833859       -0.16997011896242
C           -0.04608913808500       -1.32130666257245       -0.64765222435718
C           -3.83702632441188        3.11362528976218        0.61590038878426
C           -4.48250830310501        2.79488469842555        1.95957366142432
C           -3.34893974984846        4.55478158903257        0.59764166927123
H           -4.63324378783538        0.92214416685836       -1.31437895356515
H           -6.82331664913723        0.25607428229729       -1.81183583894661
H           -7.15934312754105       -1.18964008868543       -2.79804148265802
H           -5.64242240969859       -0.29095912251591       -3.03693290972109
H           -4.91208292604717       -3.71146608699873        2.43110950792200
H           -5.33147618301374       -4.96821714959554        1.23993453311790
H           -3.64589425280889       -4.41243113308238        1.38354521360553
H           -3.08362039306173       -2.23834621383369        2.11633523351417
H           -2.13631191558388       -0.00913586873814        2.01658429303921
H           -3.04454915145477        2.39650126443076       -1.85924353235901
H           -1.64621069206129        3.22840886896099       -1.18429878362297
H           -1.80139773245857        0.23025766283021       -1.65952238828074
H           -1.04074476893082        1.39132255779296       -2.74909971108591
H           -0.64583037244942        1.64040261613778        0.55736156853376
H            0.67738170413418        1.97016303881269       -1.07676901385769
H            2.12951411549756       -0.66768047331251        0.70712985442441
H            2.28137148711886        0.98217244415093        0.08589613350121
H            2.77153847260416        0.07770954930817       -2.18414302923722
H            2.69133441868739       -1.57112190004870       -1.53524293890687
H            4.62725296497674        1.57338557878943       -1.56223719761057
H            6.92395364945374        1.76963023130853       -0.77352242000690
H            8.63692387767351        1.82122805161258        0.83789950031742
H            9.19506621526387        1.15286230639149       -0.72248890859027
H           10.02807220195692        0.70898432622393        0.78893128135686
H            7.03458126204097       -4.23090229392737        1.66516371928302
H            5.41884103870713       -3.49574262113626        1.79886656637132
H            6.01078657532969       -4.07994903088948        0.21632283145182
H            4.39790174752804       -2.38777685137675       -0.01350783443953
H           -0.19400584621880       -1.65863460466484       -1.68156819722912
H           -1.02281555085998       -1.25256227866349       -0.16269196771280
H            0.54863415258713       -2.06758722602950       -0.12368806407087
H           -4.63252398641996        3.05859282794804       -0.14418607807121
H           -3.72086575230302        2.86067346538328        2.72886752344623
H           -4.89686810161068        1.78898471053182        1.95040831473144
H           -5.29704114752457        3.48716256100586        2.17120985612392
H           -2.53932045635151        4.67212968628722        1.30586994128749
H           -3.01471405825680        4.85497425487131       -0.39259608449787
H           -4.16776126884626        5.21678611393014        0.87923147817081
H           -0.53178502032282        2.70304081099662        2.71011425307554
