72
 energy: -1.774161163513 xtb: 6.6.1 (8d0f1dd)
N           -1.36656456380173        2.63853500143220        2.22327438558474
C           -1.45324281722930        2.06619235309840        1.10751479086367
C           -2.70860738761372        2.01851299450568        0.27762850844285
C           -3.30827689176202        0.61405743267596        0.37376088784952
C           -4.28166840018428        0.20881142302491       -0.54725336883610
C           -4.84630968012356       -1.05045048575622       -0.50565427236535
O           -5.81416747743060       -1.51296393679577       -1.35031907690636
C           -6.36069791650684       -0.63178376454481       -2.29703861831602
C           -4.42283121108512       -1.96716346920097        0.47978007584201
O           -5.03435977135804       -3.18402306986559        0.44629646302407
C           -4.72843549850522       -4.10941242383369        1.45663452138383
C           -3.44635951956845       -1.57738361578667        1.37542658376189
C           -2.89495472415854       -0.30389625287445        1.32033346661172
C           -2.21163556048049        2.27463001972542       -1.17160600573561
C           -1.28291920228598        1.17659857691810       -1.73512843226241
C            0.02985690707307        1.11560351767125       -1.04416682558483
N            0.63406908510622       -0.07616200347866       -0.64528230915567
C            1.99569784939303       -0.04173892129585       -0.21604850920573
C            2.95335555389783       -0.53151513711143       -1.31990822095409
C            4.37078243635019       -0.41771532144982       -0.86323488458862
C            5.08612305819673        0.75144848887141       -1.04823509810260
C            6.38654625359900        0.86508587089616       -0.57984867081692
C            6.98944022825523       -0.18612837891682        0.08837134086220
O            8.26559199852865       -0.19029335045414        0.57202222194032
C            9.05356305428107        0.95324317577210        0.36848353744870
C            6.26061499959080       -1.37713026139631        0.29851834259387
O            6.93240830596996       -2.36253433585781        0.96197137967792
C            6.28713505729815       -3.59271107835829        1.16612624407946
C            4.96659239273940       -1.47265687390201       -0.17613973449595
C           -0.04736378258865       -1.33608086620057       -0.68346012762698
C           -3.78826507999073        3.13878484951292        0.65095734344530
C           -4.45894157404127        2.80710720235072        1.97884439876018
C           -3.29144581597959        4.57344997426387        0.64610949633746
H           -4.60618866757610        0.89753083233421       -1.31293728089503
H           -6.79742411353699        0.25298415608545       -1.82112956576457
H           -7.14452512076225       -1.19494335041416       -2.80149424795373
H           -5.61717297397681       -0.31416974164100       -3.03597679018112
H           -4.94135579195217       -3.70782576582460        2.45348976715759
H           -5.37147271204814       -4.96796211990507        1.26978514732421
H           -3.68129966329263       -4.42657258163036        1.41193181103050
H           -3.09879398520194       -2.25725293608052        2.13715911278500
H           -2.12892546870918       -0.04360253452788        2.03212968900739
H           -3.06443518750556        2.41311204202623       -1.83729902397584
H           -1.64109774542670        3.20771606153247       -1.16443617176681
H           -1.80463475772871        0.22266428180067       -1.69992193619056
H           -1.07862966382523        1.40491377553041       -2.78528963137955
H           -0.59892245176004        1.64632123175171        0.45093716471141
H            0.70908332785687        1.93890785431061       -1.21325699285904
H            2.13087018508694       -0.66644230834454        0.67268597805004
H            2.25944815422366        0.98367170617976        0.05519654821719
H            2.78207327827914        0.08585946948945       -2.20470204608782
H            2.70304023416028       -1.56604631540791       -1.55871686344046
H            4.63492536740307        1.58534555062222       -1.56621637866028
H            6.92424458523084        1.78150186916148       -0.75817001629711
H            8.62368592589721        1.83318713205188        0.85939465892385
H            9.19008444743863        1.16535614440073       -0.69790984537102
H           10.01946214942319        0.72629709062041        0.81713049775308
H            7.01465403229123       -4.22364031230310        1.67534462974010
H            5.40014488655661       -3.48435301435444        1.79907329260108
H            6.00194384480874       -4.06655329733429        0.21973761975437
H            4.39470591120514       -2.37498408752931       -0.02339529236356
H           -0.17131222190148       -1.69520737711473       -1.71374865575273
H           -1.03296671974315       -1.25959612687130       -0.21736183500286
H            0.52847919361873       -2.07829739172333       -0.13324225553260
H           -4.59742255599089        3.15376419541256       -0.10342908986322
H           -3.68973274158668        2.80507450633505        2.74242437962605
H           -4.92387895871106        1.82405638454988        1.92509053685536
H           -5.25303575175105        3.51840503555220        2.21468493568001
H           -2.47035173086076        4.66169609190634        1.33862996459846
H           -2.98165300190499        4.89045244592859       -0.34743262784170
H           -4.10067895477824        5.24057096725570        0.95303080824117
H           -0.46173340905967        2.63778907147322        2.67185122831936
