72
 energy: 65.185087273842 xtb: 6.6.1 (8d0f1dd)
N           -0.54218966508737        1.70909529061598        1.88442000252742
C           -0.88911193504363        1.47935608793184        0.73966231727509
C           -2.08226236166278        1.32086106797058        0.13690913422886
C           -2.93522336893094        0.17238413997881        0.38528080825938
C           -4.00681741314660       -0.09957605339990       -0.48537670495660
C           -4.77531640476389       -1.23310267895417       -0.35758523636053
O           -5.76103716925129       -1.63063030612148       -1.22372283561143
C           -6.13190439793534       -0.79386572256162       -2.30029175233767
C           -4.52344937310008       -2.10681050173848        0.71397905629501
O           -5.30085283809070       -3.21728433269981        0.72852836304959
C           -5.14538426246554       -4.11591541293084        1.78635678956344
C           -3.51389714750785       -1.80986296750746        1.61264064097998
C           -2.73819223971950       -0.68175818939447        1.46306048320244
C           -2.13304018180341        2.00694734971513       -1.17210949266223
C           -1.49657774649132        1.08775758425434       -2.19384457913915
C           -0.01266582474234        0.90305948173071       -1.96214307750304
N            0.44966897420688       -0.09078338363399       -1.04344389862371
C            1.81983288089465        0.06626216731950       -0.59009798457704
C            2.96176904040859       -0.37995833948616       -1.54207529805155
C            4.31748740618664       -0.23701687310891       -0.90882781386076
C            5.05519857506255        0.92667273693731       -1.01922437135541
C            6.31494263278733        1.02733060253179       -0.44134893409200
C            6.86372828288985       -0.02820057154544        0.26426018180240
O            8.10760226818172       -0.04042322549523        0.82904520915420
C            8.91570957527968        1.09982059964438        0.68099768217232
C            6.11216370398910       -1.21702789267493        0.40336229226660
O            6.73438508088212       -2.21818235510899        1.09724193408984
C            6.08026698838498       -3.45360289811346        1.23980611421463
C            4.85990335654536       -1.29860287683710       -0.18215926859286
C           -0.03935144218132       -1.43187302458243       -1.12436333904367
C           -4.07060892732538        4.10992575188767        1.03388000973521
C           -4.43487419159982        3.05213420477347        1.97180328696464
C           -2.85477887181916        4.93092762021003        1.15771869810750
H           -4.25819928930476        0.56594166265491       -1.30334787210284
H           -6.47010373872395        0.18998907881785       -1.95795541709031
H           -6.95955290030791       -1.29671108914458       -2.80285972677374
H           -5.32235889346775       -0.64921051608121       -3.02246385837975
H           -5.31887787073693       -3.62829172086976        2.74914330011496
H           -5.90885104302300       -4.87417917291376        1.62322258144526
H           -4.15433312583601       -4.58490569227223        1.79015202577299
H           -3.28381720504152       -2.47000049662993        2.42796604425976
H           -1.96390695036098       -0.47537738345150        2.18068710253717
H           -3.13629192990451        2.26708119039936       -1.49210473869142
H           -1.53513492116249        2.90865968224349       -1.06928869010413
H           -2.05781854482627        0.16091512157882       -2.19160362263173
H           -1.58751677370950        1.56394411606422       -3.15551963417265
H            0.16214159227791        1.71981472353868       -1.13053596666194
H            0.58889646550390        1.09190924181360       -2.86623497656957
H            1.91786887771121       -0.51226166267471        0.33695684007428
H            1.98767258263915        1.11650298363234       -0.33086016220292
H            2.90853225475081        0.23116656513457       -2.43723554460235
H            2.79483913544417       -1.42310339104006       -1.82085380791166
H            4.65984976264971        1.76534513527573       -1.57383058644713
H            6.87341114006697        1.93882462314213       -0.56972447066336
H            8.45622048998356        1.97718799615991        1.14634920991876
H            9.12578458300371        1.31679666712681       -0.37367305108433
H            9.85026430301000        0.87307263953926        1.19290446898242
H            6.76465892275709       -4.09755570880122        1.79395676425260
H            5.15162847122670       -3.34756949911182        1.80632197251835
H            5.86548820514792       -3.91648622491993        0.27015451276438
H            4.28470535855477       -2.20827158693752       -0.10010602068358
H            0.27600762991155       -1.93985914967931       -2.05228776234567
H           -1.11960113751323       -1.38502681804235       -0.96219503968870
H            0.34247649253605       -1.96733904685541       -0.26458712948260
H           -4.89837161009516        4.57736611258514        0.53783554981791
H           -3.57445111701194        2.47735426555680        2.30170061339650
H           -5.11784119025305        2.35436732580329        1.50842509630715
H           -4.92173346445758        3.51372897703870        2.82398632919144
H           -1.90754155423816        4.56358999913134        1.51751146321712
H           -2.69847332099745        5.40629525886995        0.20219688269014
H           -3.24272230014012        5.61784027887057        1.88077479371850
H            0.37491234086498        1.80802309479972        2.22938550822165
