72
 energy: 39.857257798230 xtb: 6.6.1 (8d0f1dd)
N           -0.44141149378190        1.68966593189803        1.90622866578349
C           -0.92131735180244        1.37879534296826        0.84382985633483
C           -2.00409657423720        1.18374277188365        0.12265993228261
C           -2.87749867802584        0.05639742368163        0.36558578765556
C           -3.95394539553265       -0.18461690206429       -0.50233197149867
C           -4.75302976392795       -1.28999920991797       -0.34325004035696
O           -5.75416638917276       -1.66249190558011       -1.19907943610887
C           -6.08292393537889       -0.83316166927837       -2.29593937620400
C           -4.53470157183719       -2.15404196061088        0.74596065088098
O           -5.36666590216023       -3.22226697258827        0.78693979872430
C           -5.24620051865810       -4.11415004583060        1.85402243069580
C           -3.51136398082581       -1.88547109285362        1.63388673350859
C           -2.70155924488979       -0.78476118248469        1.45625310151244
C           -2.08388843663099        1.94682439815983       -1.14266157306097
C           -1.47774253572180        1.11209331388488       -2.25709552971833
C            0.01770263015362        0.89757777557871       -2.00583645157222
N            0.41881304758550       -0.03636728866535       -0.99294354541899
C            1.79287390777574        0.13990176964691       -0.59454626749912
C            2.93101823014392       -0.32325328261360       -1.55258678350696
C            4.28529510711032       -0.19703572669279       -0.90440517407184
C            5.03119319185275        0.96286039611992       -1.00803950948587
C            6.28554603384709        1.06367605888710       -0.41682739415826
C            6.82380383191917        0.00705435121328        0.29423546708978
O            8.05822984267746       -0.00813561023101        0.88180683135773
C            8.87587218579763        1.12826556210268        0.75152764864059
C            6.06955210833289       -1.18239102544191        0.41857292075411
O            6.68389391660411       -2.18320347998989        1.12137274138238
C            6.03108104685595       -3.42077482984509        1.25325927025873
C            4.82247285596624       -1.26295689222130       -0.17843519265796
C           -0.00763499643144       -1.39585453715331       -1.11050142814776
C           -4.25005655628544        4.35914086441588        1.15791246902857
C           -4.49362305561944        3.14044064841730        1.93396664887406
C           -2.96576512839421        5.09733870892622        1.19969532208907
H           -4.18299235207887        0.49109517337165       -1.31473061217547
H           -6.39051174094384        0.17133778986655       -1.98187860573542
H           -6.92314167084574       -1.32048491883062       -2.79152572964047
H           -5.26369313062600       -0.73165892411586       -3.01586684171049
H           -5.40685886790893       -3.61001333208727        2.81129538612186
H           -6.03929307279431       -4.84172938863189        1.69066178233070
H           -4.27281678410407       -4.62182593792492        1.86721050059580
H           -3.30652574531083       -2.54453433181996        2.45880126078954
H           -1.91981900866884       -0.58037184580030        2.16811410644302
H           -3.10600803200387        2.22299543827908       -1.39170552460003
H           -1.49511666968504        2.84960565051577       -0.99738042760696
H           -2.05663392368869        0.19329467267023       -2.31449173485990
H           -1.59799908288202        1.65483113560293       -3.19688097932415
H            0.29618415869138        1.80616571230871       -1.41673493455701
H            0.54729919651421        0.71787049839098       -2.98605364632274
H            1.89436509200802       -0.42530075886677        0.33622990870562
H            1.94323387580201        1.19717846042861       -0.37124707321358
H            2.90712994977966        0.28456644283175       -2.45576970910972
H            2.76756824918817       -1.36418044936981       -1.84053770008238
H            4.64416514937875        1.80400472568871       -1.56494833955502
H            6.84867182296296        1.97515796313189       -0.53251084529314
H            8.41454593425390        2.00745055052718        1.21159923826084
H            9.10708503053001        1.34737986875169       -0.29831669623142
H            9.79991382216423        0.89332226764789        1.27919636334035
H            6.70916167048608       -4.06230140508898        1.81786862132141
H            5.09341562998895       -3.31938727205507        1.80612887102160
H            5.83265296800721       -3.88262554037068        0.27972141240700
H            4.24774355398363       -2.17326994856831       -0.10157780949197
H            0.43080290866877       -1.86968162648567       -2.00247037183048
H           -1.10335917937867       -1.42304662598232       -1.09976442542535
H            0.32005346003359       -1.93689231620327       -0.22309652756066
H           -5.10838233943277        4.84781431856630        0.73937379840142
H           -3.56317826345438        2.61587499959912        2.15041727799294
H           -5.15082005789526        2.44717220248482        1.40868082752802
H           -4.98271470868256        3.38937292119152        2.88302903107814
H           -2.08221780248118        4.56335321161789        1.49133734416440
H           -2.77198448870480        5.56657470030986        0.24359521222965
H           -3.16522135087670        5.83017881994707        1.96725045325004
H            0.52152255354490        1.61090787526045        2.10912668024801
