72
 energy: 41.610745027886 xtb: 6.6.1 (8d0f1dd)
N           -1.04377863411053        2.25472474694865        2.08766838495715
C           -1.18498013927437        1.92311167661912        0.88458405116975
C           -2.52164960739326        1.86815520347088        0.25718858974631
C           -3.19039421590978        0.49720653387648        0.42814852159899
C           -4.18293835461213        0.10495417179064       -0.49923273767399
C           -4.82757630625722       -1.11382607458585       -0.44035175257968
O           -5.79612274175116       -1.55974520171716       -1.30252534788261
C           -6.27052669260671       -0.68984239346201       -2.30179217756644
C           -4.47145913827169       -2.01662772032528        0.57761536204399
O           -5.13768117825517       -3.20408043515854        0.55396126309951
C           -4.88780957073737       -4.11902105432094        1.58603376550634
C           -3.48887823155301       -1.65170006362827        1.47882263460035
C           -2.85468246147171       -0.42150441764083        1.40637086506652
C           -2.23066140098756        2.19086654350432       -1.20295059100779
C           -1.37062330213239        1.14477365650626       -1.92817092014394
C            0.03023180656633        1.05894139442528       -1.44158025158549
N            0.61207308945145       -0.12041676282854       -0.92823747138836
C            1.94308694875003       -0.02317197280977       -0.38771070178751
C            2.98229715846749       -0.48874020019326       -1.42166682348492
C            4.37575458081349       -0.35344740368599       -0.90160080672413
C            5.09334874945917        0.81874565850232       -1.04528107195005
C            6.37424064884299        0.92717382866016       -0.52216911928700
C            6.95518410814489       -0.12529401071349        0.16359666539317
O            8.22054862987377       -0.13069990382208        0.68110071103522
C            9.00882612177942        1.01477631612461        0.49049606658151
C            6.21652686130476       -1.31438028524479        0.34442356412748
O            6.86328729804121       -2.30690223593966        1.02700354187445
C            6.21030945547451       -3.53883751170626        1.19740674455935
C            4.94310837751567       -1.40541266769417       -0.18788755903979
C           -0.05229379987065       -1.38886147558737       -0.88092494843257
C           -3.64152231539022        3.34506543588492        0.81289094313565
C           -4.33571315396055        2.84762310389805        2.05011237805156
C           -3.01061003511109        4.66907495188316        0.88482066668559
H           -4.47186646579249        0.77387761997842       -1.30223607687358
H           -6.67093102651005        0.23676939871689       -1.87512978034247
H           -7.07016504209273       -1.22860819808571       -2.80967184712671
H           -5.49538397021425       -0.43624822774749       -3.03273992769547
H           -5.08581058872932       -3.68133361716223        2.56984857290695
H           -5.57356839292841       -4.94803899275359        1.41677025888556
H           -3.85840721785839       -4.49110894051776        1.55967912136147
H           -3.17642248566231       -2.32845469391362        2.25636459789256
H           -2.07759375486802       -0.20233476739244        2.11519135439657
H           -3.15612160510536        2.43623851438706       -1.72463726928389
H           -1.61161462122316        3.09044783506415       -1.18232117890463
H           -1.87807725957378        0.18584771121310       -1.90061279006371
H           -1.28357594900478        1.46145316582516       -2.95655926278639
H           -0.33290747544738        1.79094466516610       -0.08677696385557
H            0.75962318147235        1.71904138090212       -1.90558671518628
H            2.06198745240744       -0.63157511737060        0.51504452410097
H            2.15048196936648        1.01241640067735       -0.10223945166126
H            2.83721156737633        0.13061449148915       -2.30567779210810
H            2.75444449926627       -1.52742410132317       -1.67013712918852
H            4.66097951879925        1.65289779528694       -1.57742854468420
H            6.91844706174141        1.84164976156572       -0.67942732355465
H            8.56158855915013        1.89238544096845        0.96895351756366
H            9.16693291274667        1.22536359319285       -0.57388183764236
H            9.96716533001337        0.79888046259859        0.96039769582435
H            6.91611042373948       -4.18196313708979        1.72406262681454
H            5.30508740337654       -3.43001548082227        1.80143023310582
H            5.95375859423254       -4.00411658052271        0.23816389765853
H            4.36603686339363       -2.30999599305447       -0.06605255347382
H           -0.06058681838148       -1.85407889697538       -1.88575917147516
H           -1.07295569757405       -1.29884179320417       -0.49646421519987
H            0.47642843669502       -2.06990857800884       -0.22831896957444
H           -4.43698856136256        3.62237796916377        0.12097332358168
H           -3.58963002364218        2.51158651352420        2.76055103590508
H           -4.97876936858831        2.01288458437101        1.76976186688886
H           -5.03332332268802        3.60363135540429        2.42783211676824
H           -2.14207372280327        4.60561911031738        1.49635885006783
H           -2.79887924635697        5.04288521726093       -0.11570677655164
H           -3.76321410371710        5.34035976377983        1.31194084219067
H           -0.13552074424209        2.32495515630341        2.49935294790582
