72
 energy: 67.231568070146 xtb: 6.6.1 (8d0f1dd)
N           -0.59900918105116        1.78670409504671        1.90394199383384
C           -0.93093375368788        1.54280058785936        0.75558499529678
C           -2.12245303262911        1.36988898531990        0.14873968320156
C           -2.96148329534159        0.21080325542136        0.39259391457147
C           -4.02770560097506       -0.07309242603972       -0.48338072471619
C           -4.78470974570285       -1.21615926573753       -0.36444602224252
O           -5.76573384959931       -1.62122210945236       -1.23284842907337
C           -6.14850651774535       -0.78023973442164       -2.30111449368679
C           -4.52158564227810       -2.09158452423830        0.70207972285496
O           -5.28069824739295       -3.21559244967233        0.70804082320781
C           -5.11275058549149       -4.11710463013285        1.76209157072013
C           -3.51658499215124       -1.78602255279651        1.60342068423067
C           -2.75298142288509       -0.64847596664203        1.46360437211403
C           -2.15062659266083        2.02958689332002       -1.17678803652316
C           -1.48571566837452        1.09187164268266       -2.15994193711898
C           -0.00929441202958        0.94007799767779       -1.88913749678339
N            0.48073956317171       -0.10774558948126       -1.05086517305712
C            1.83874006894675        0.04852133111527       -0.57381232049605
C            2.96940707344729       -0.39639730822416       -1.53081544249936
C            4.32798642523437       -0.25118228356430       -0.90927077304368
C            5.06200776659852        0.91400416555315       -1.02249140499820
C            6.32398524870184        1.01512550244612       -0.45033937961765
C            6.87641770812829       -0.04019733025526        0.25307682843321
O            8.12350586182052       -0.05138614116170        0.81197583302020
C            8.92839076038775        1.08993864661518        0.65768569057754
C            6.12599209649788       -1.22907225180505        0.39754621338218
O            6.75109615644774       -2.22946234064990        1.08966552086772
C            6.09673427309166       -3.46431482514285        1.23493138312914
C            4.87162484086164       -1.31137457197857       -0.18258089032766
C           -0.04087808802743       -1.43462192022768       -1.10653869720720
C           -4.01200614338619        4.02135518873151        0.99976937179427
C           -4.42092659358161        3.01901810216869        1.98049632379253
C           -2.82837078126079        4.87788005727452        1.13992767089806
H           -4.28371465938824        0.59060193610932       -1.30244548827389
H           -6.49542535008387        0.19669312862672       -1.94836237761388
H           -6.97254376595176       -1.28748426442185       -2.80492752002256
H           -5.34224443859356       -0.62136970765796       -3.02423473272561
H           -5.28940778841075       -3.63559370498549        2.72754705572090
H           -5.86616426532669       -4.88549325933177        1.59885257016390
H           -4.11604042569256       -4.57338166061420        1.76193458809580
H           -3.27672507120066       -2.44652386776750        2.41494237447529
H           -1.97972788567708       -0.44093205310640        2.18104222832587
H           -3.14566712910826        2.28157629389855       -1.52584759573166
H           -1.55021676899319        2.93052182011537       -1.08856857838576
H           -2.04069759550318        0.15921355955232       -2.14949063690769
H           -1.55610499516762        1.54754741186032       -3.13000825659679
H            0.12968298189966        1.74566150103492       -1.00185992750890
H            0.60597850071691        1.20664150980480       -2.76857264169623
H            1.93629959284781       -0.53368388856694        0.35150397877079
H            2.00792694943050        1.09833049678627       -0.30738150616740
H            2.90187609923758        0.21623081726121       -2.42405774586842
H            2.79434615796617       -1.43953233452651       -1.80408372869664
H            4.66284209077493        1.75175109103154       -1.57556162166609
H            6.88146914596253        1.92663292432991       -0.58209259636380
H            8.46951735716261        1.96708978905609        1.12433618616961
H            9.13112645935204        1.30596880938740       -0.39860792724052
H            9.86661595914254        0.86620095415375        1.16414222271626
H            6.78298131047122       -4.10926960003167        1.78579835909903
H            5.17080680079001       -3.35741133001425        1.80571200810620
H            5.87686865184936       -3.92693732015208        0.26610744387674
H            4.29579165959419       -2.22046448042331       -0.09777921980471
H            0.22330201735583       -1.95350171510561       -2.05047060692475
H           -1.11369768454655       -1.37508606506744       -0.90477867909480
H            0.36748679507945       -1.97945934626449       -0.26745427594177
H           -4.82756281027585        4.48402168635900        0.48282915414550
H           -3.58666640737149        2.43475043544079        2.35343443199346
H           -5.10786651665914        2.31037186474867        1.53503175413955
H           -4.91580096270422        3.54577791417029        2.78617103610427
H           -1.87062974444274        4.56718928357633        1.54298992473476
H           -2.67692338507752        5.34538383059013        0.17726365308658
H           -3.28663517048476        5.56636105746329        1.82135634017553
H            0.31703712529820        1.87936332319928        2.25776442459537
