72
 energy: 23.439446989407 xtb: 6.6.1 (8d0f1dd)
N           -0.42246293012091        1.88034550663857        1.99006204163709
C           -1.02981760926354        1.38316761151546        1.06703498072844
C           -1.94956016319303        1.08708365155619        0.17874035783298
C           -2.82140098643874       -0.06621028670316        0.35018826409200
C           -3.88959266493512       -0.29536562356982       -0.52825949674492
C           -4.74155659500445       -1.36673389415117       -0.35293616425372
O           -5.79014823365013       -1.68301343640709       -1.17052882930107
C           -6.05035645362995       -0.87228581202760       -2.28611968464199
C           -4.55378674752614       -2.23733017557145        0.73942507080136
O           -5.43589358881803       -3.27101982972491        0.81286295330113
C           -5.37274098302027       -4.14180795323383        1.90735094079876
C           -3.52576584048696       -1.98674915826539        1.62969106149799
C           -2.66671643128716       -0.92099433135184        1.43663423190967
C           -2.00418643510125        1.91363816505365       -1.08026386175039
C           -1.41041508803025        1.12052546648755       -2.24806174335997
C            0.08023137233993        0.90091166788883       -2.00264185890288
N            0.44617233841893       -0.04164675672703       -0.97286949694489
C            1.80552705190286        0.12180714478871       -0.53016206199238
C            2.90841609248972       -0.30397137358648       -1.52520226246760
C            4.25980503047112       -0.17542394022651       -0.89340190375661
C            4.99485360186238        0.99082623675378       -0.99482029901657
C            6.24659388755852        1.09605476342710       -0.40113138107830
C            6.77938843560227        0.03481502681672        0.30823354138914
O            7.99729247753352        0.01999116463479        0.92474384286821
C            8.81658341025929        1.15442470730882        0.82227418755274
C            6.02995541866250       -1.15696795216692        0.42859124719185
O            6.63295073025229       -2.14898184060277        1.14232713718191
C            5.98103944721887       -3.38626398733553        1.26069315775505
C            4.78543599787495       -1.24197246141091       -0.16619904394843
C            0.00854329972178       -1.40547521155737       -1.13956407346922
C           -4.46938130638304        4.65187731155205        1.37171025218094
C           -4.56717405043784        3.26328540050777        1.86739915447398
C           -3.13819629969545        5.28866693451124        1.21845047800866
H           -4.08888882948118        0.38904949998972       -1.33969031528429
H           -6.29882085486245        0.15058171491872       -1.98611503357346
H           -6.91703257955942       -1.32132811205522       -2.77098963952649
H           -5.21132327140740       -0.84512830244533       -2.99554494951927
H           -5.51690091596745       -3.62786962836786        2.86410110521673
H           -6.19246872960881       -4.84035277463329        1.74765537508122
H           -4.42853299767257       -4.69379310017668        1.94036112263464
H           -3.37425803201439       -2.63273184461781        2.47855026898012
H           -1.88552928113413       -0.72714572772446        2.15606703250679
H           -3.03592005801185        2.21309921613093       -1.29062307288971
H           -1.41385481882926        2.81866573393626       -0.91662686892823
H           -1.95159082303695        0.18166172591886       -2.38930757696754
H           -1.48466187075458        1.69147470069336       -3.17847437622181
H            0.50750486865794        1.88487781386107       -1.74626428246598
H            0.55214338192198        0.65059170315447       -2.97437170479226
H            1.91288641414825       -0.43425089443621        0.40200566195633
H            1.94577653808951        1.18169602494609       -0.30155819761489
H            2.86308287129017        0.31853129029561       -2.42398569597608
H            2.72340107694833       -1.34025982461236       -1.80856293383117
H            4.60379428956669        1.83101289317226       -1.55108903072795
H            6.80088352582255        2.01553113805882       -0.50954662756286
H            8.35226631664734        2.03595065727060        1.27855275516421
H            9.07298069865940        1.37890850965155       -0.21881954391690
H            9.72535944450171        0.90718519303549        1.36946875675719
H            6.66125398532452       -4.01863876390515        1.82949284326046
H            5.03286751172421       -3.29677948302226        1.80325541031798
H            5.79668876671271       -3.84361240260166        0.28246799270313
H            4.20182411961435       -2.14626518945199       -0.08611333689264
H            0.36460934480261       -1.91249971871221       -2.05169012947836
H           -1.08146578285915       -1.43112166692065       -1.14497593877210
H            0.35315938481811       -1.96948000922686       -0.27385372899638
H           -5.35777235645066        5.17917912656996        1.07182107034446
H           -3.57777161808607        2.81853575202805        1.96630548295817
H           -5.17134721325724        2.60299954354236        1.23492178131206
H           -5.03882362830351        3.21344002490387        2.85317825676825
H           -2.34545313879702        4.59375718342661        1.45582111862124
H           -2.96537377034638        5.68915484403169        0.21368407141045
H           -3.07198544741988        6.13288462320224        1.90869923546201
H            0.55263150510574        1.72356088278091        2.20669357959716
