72
 energy: 2.916928943625 xtb: 6.6.1 (8d0f1dd)
N           -1.30144986249419        2.55875884160021        2.20241878726571
C           -1.39657079850008        2.02960339102769        1.06624187196435
C           -2.67705163397889        1.99540670063387        0.27815421162652
C           -3.29198602534956        0.59288372486581        0.38933767900572
C           -4.26550382654787        0.18843312052262       -0.53561210922936
C           -4.84426368337891       -1.06415420547137       -0.49278011498146
O           -5.81193247267501       -1.52347309898773       -1.34150641792418
C           -6.34273839419817       -0.64284497527510       -2.29814650494186
C           -4.43416017415734       -1.97863579382399        0.49883739546864
O           -5.05612305159916       -3.19025837319996        0.46703035072418
C           -4.76081559432637       -4.11300216398502        1.48241730048924
C           -3.45660675814200       -1.59377834816865        1.39549772277084
C           -2.89199667908593       -0.32669704551492        1.33985764983712
C           -2.21818516677032        2.26034672113438       -1.17707867708116
C           -1.29789180068232        1.17259466387255       -1.77513070624280
C            0.03748861520196        1.10669244752844       -1.12770350301430
N            0.63142995985645       -0.08781841775703       -0.70228621114076
C            1.98728726934652       -0.04158122668532       -0.25132086134028
C            2.96145855425402       -0.52450049046953       -1.34205842259270
C            4.37468372441474       -0.40622641027465       -0.87407180802528
C            5.09007797245333        0.76413392060385       -1.04946878089618
C            6.38592860043003        0.87733185995528       -0.56826832201119
C            6.98448165733259       -0.17382862373790        0.10394948746549
O            8.25847180498173       -0.17801767686826        0.59479956398966
C            9.04514140540049        0.96637366290940        0.39284852397494
C            6.25391242665666       -1.36429769007683        0.30787818695346
O            6.91933167617486       -2.35106438449935        0.97679302166315
C            6.27191480775873       -3.58157383909065        1.17263389095394
C            4.96498055563899       -1.45973960832551       -0.18085187299376
C           -0.04941968809756       -1.34820340653894       -0.72172198393168
C           -3.73647253620162        3.16310140712985        0.68712766387135
C           -4.43151891823286        2.81573479844406        1.99873777608944
C           -3.23315089316064        4.59003091153020        0.69516923486343
H           -4.57914913596389        0.87236876863789       -1.31155584171793
H           -6.77164014183808        0.25046482348913       -1.83104383142912
H           -7.12977302179253       -1.19990966010166       -2.80437461492264
H           -5.59192806921701       -0.33770857910383       -3.03479050237610
H           -4.97050434132685       -3.70374336286392        2.47676556003402
H           -5.41169555120998       -4.96669718385248        1.30043399656068
H           -3.71687768292189       -4.44049081585435        1.44100167527030
H           -3.11451308797095       -2.27389878255771        2.15919143057322
H           -2.12049244015420       -0.07652864917089        2.04826091478135
H           -3.08331778692116        2.42993935437054       -1.81823193119705
H           -1.63356295126586        3.18521152346465       -1.15368171238873
H           -1.81041702633152        0.21383083025041       -1.74267098446538
H           -1.11785174804593        1.41779914610180       -2.82255188628336
H           -0.55020572554506        1.65974664880024        0.34256182612219
H            0.73828261273743        1.89937600660699       -1.35300300701086
H            2.12550365981221       -0.66316024670426        0.63884264279152
H            2.23758307199185        0.98636765658941        0.02368432182468
H            2.79364433299615        0.09406859134300       -2.22591388121784
H            2.71430845170379       -1.55983521006852       -1.58187509976354
H            4.64199606615662        1.59811373020306       -1.56964257153571
H            6.92403748891061        1.79369561540216       -0.74216529841533
H            8.61085929192167        1.84553328393270        0.88107516440006
H            9.18504257156918        1.17786256724218       -0.67336411332342
H           10.01008149475483        0.74305124704482        0.84520141046989
H            6.99442999774244       -4.21586581733647        1.68529417221822
H            5.38099605120871       -3.47302857532660        1.79944832795167
H            5.99254087193006       -4.05318249120537        0.22323460991312
H            4.39090876316818       -2.36190287031712       -0.03324097997305
H           -0.14851334903219       -1.73065174082979       -1.74703437564409
H           -1.04383068240627       -1.26643290262200       -0.27346738227742
H            0.51220810048759       -2.08153259204779       -0.14702614904631
H           -4.55302743872437        3.24190884222792       -0.05750247337830
H           -3.66380994216926        2.74979283814325        2.76168955414201
H           -4.94351474314502        1.85951594227756        1.90157338104279
H           -5.20826910671042        3.54321840326636        2.25491301322645
H           -2.40188071366901        4.65247761891372        1.37198840206778
H           -2.94704196109538        4.92235075489947       -0.30104070545626
H           -4.03364678280472        5.25973014533709        1.02615580833655
H           -0.39272639268860        2.57397069998594        2.63445400700070
