72
 energy: 19.723564682966 xtb: 6.6.1 (8d0f1dd)
N           -0.49118030214411        1.90763260680123        2.06563562102972
C           -1.11563354375608        1.40469440813815        1.15509515815597
C           -1.98361777565528        1.08211821565076        0.22730633502148
C           -2.87754859941954       -0.05984737799381        0.38512651120646
C           -3.92073783000117       -0.30651805594575       -0.51549276229671
C           -4.76337365241433       -1.38974612897808       -0.35449583537981
O           -5.80331783119812       -1.70314057503013       -1.18210090106754
C           -6.07491811456736       -0.86669188607699       -2.27556436370430
C           -4.58020024258803       -2.26965168689824        0.73400236669803
O           -5.46292910980738       -3.30906679253098        0.80262156809183
C           -5.36903101767204       -4.19961812282853        1.88302891444743
C           -3.55236460117085       -2.02235658764737        1.62812053569346
C           -2.71366156966044       -0.93480186120197        1.45513307948540
C           -1.95999218579987        1.90612980304380       -1.04135105214813
C           -1.38464980123491        1.14282361748076       -2.23867533674821
C            0.11672884396301        0.86922159081666       -2.11354943615415
N            0.44971087560658        0.03390018123974       -0.97610563459171
C            1.81281545471081        0.17298418947047       -0.51773205157907
C            2.90797008067721       -0.29768815446988       -1.50259446705595
C            4.26826131054453       -0.18624790447940       -0.88429119286209
C            5.00799423975955        0.97591731230290       -0.99431609850701
C            6.26440920012641        1.07915684845114       -0.41232250096161
C            6.79960675771315        0.01791104301597        0.29438372352281
O            8.02292558381019        0.00204604232714        0.89655718403618
C            8.84195412531140        1.13710140430919        0.78629701976286
C            6.04929811072664       -1.17307745628958        0.42108652697735
O            6.65686655579818       -2.16711650195459        1.12881096635201
C            6.00572582452649       -3.40479079073776        1.25336461694884
C            4.79966699510136       -1.25582511163149       -0.16401467374361
C            0.01815771125662       -1.33869976733828       -1.12066325405820
C           -4.42393351692483        4.59587557943186        1.34874329184392
C           -4.55432468611829        3.22951878184894        1.89003243532136
C           -3.12977242000930        5.29164551413807        1.20993962465935
H           -4.08021303576508        0.36683971802192       -1.34110790193016
H           -6.32804720551332        0.15068570948412       -1.95718914706622
H           -6.93647519403049       -1.30995797835685       -2.77321489837800
H           -5.23508997175931       -0.82838028849667       -2.97846843692345
H           -5.51091013120593       -3.69068040281627        2.84276532604722
H           -6.17354782328024       -4.91907388178503        1.73608778488784
H           -4.40982403700507       -4.72913612234305        1.89266321730440
H           -3.39230216533025       -2.67626861762874        2.47113775257531
H           -1.91651812787378       -0.76294000638515        2.16286591174036
H           -2.97627386371005        2.23577642913147       -1.27123502905707
H           -1.35911811063439        2.80098198134049       -0.86781221630273
H           -1.91972415648463        0.20301801989155       -2.37279146834890
H           -1.53630411085221        1.74324759254945       -3.13988089762179
H            0.63296274490313        1.82550964347315       -1.98346854222049
H            0.46423951835631        0.42441592501041       -3.06570403406134
H            1.90825529656788       -0.39848924005585        0.41091306795663
H            1.98339211386570        1.22797566248006       -0.28051281487551
H            2.85986080597786        0.31648776749508       -2.40330833180258
H            2.70965028246834       -1.33490304363561       -1.77720470905903
H            4.61433391156413        1.81496636806351       -1.54884804308349
H            6.82040678653861        1.99631929022224       -0.52677851030143
H            8.38061359048202        2.01806616139399        1.24576567638823
H            9.08832675745187        1.36017173594242       -0.25756623160147
H            9.75526077697972        0.88871331044838        1.32516392185908
H            6.69079299552868       -4.03732802119275        1.81632089005173
H            5.06312245056491       -3.31569027033313        1.80452141493726
H            5.81307291014437       -3.86227917310049        0.27687821722780
H            4.22003083179903       -2.16253917598279       -0.07977671596487
H            0.38499769148607       -1.81746987855903       -2.04144132841183
H           -1.06993644726579       -1.37840120560259       -1.12272973820593
H            0.36749270584775       -1.91241315798442       -0.26396887396015
H           -5.32168980240828        5.13870499880831        1.10374685488406
H           -3.58278569871573        2.75525282411171        2.00937252366055
H           -5.17277924619497        2.60615414629158        1.23736455373621
H           -5.05650910058155        3.23771827852329        2.86486804134650
H           -2.30030483588150        4.62803247153682        1.44522950212448
H           -3.00155648927853        5.67663217516620        0.19322952557177
H           -3.07699947887103        6.16423951516899        1.87188994651824
H            0.47109118553864        1.67153920008575        2.27269415000659
