72
 energy: 79.393933025834 xtb: 6.6.1 (8d0f1dd)
N           -0.84516518071228        2.04576567545024        1.99326863261488
C           -1.05030663645904        1.80710476679481        0.78581871056283
C           -2.30369817769428        1.60136026039185        0.18948495128056
C           -3.07772981675504        0.37871345373424        0.42196164953890
C           -4.11461758618693        0.02852003757075       -0.48450630250954
C           -4.81316666848910       -1.15536053026159       -0.40160528071489
O           -5.78374062973078       -1.58610727359895       -1.27307224214120
C           -6.21622217934804       -0.72620849856558       -2.30196273555667
C           -4.49809130730794       -2.04763036967914        0.63596531621281
O           -5.20025346445959       -3.21614653147293        0.61911429345495
C           -4.98362944851237       -4.12179740365829        1.66269532097206
C           -3.51055073516592       -1.70478422733719        1.54324139367958
C           -2.81424087971976       -0.51856124211142        1.44709110151345
C           -2.20304333287822        2.11859197558845       -1.20153450302486
C           -1.40792932448489        1.11432592974132       -2.04416039976437
C            0.01104026443597        0.99547414707855       -1.66546880015050
N            0.58525644187574       -0.12573553008783       -1.07976913441193
C            1.90406390233901        0.00201946238658       -0.48558414327995
C            2.98786130437112       -0.45495691693517       -1.47498329501016
C            4.36407914680847       -0.31037494836657       -0.90848550960813
C            5.08567708076134        0.86011298973530       -1.03695752133779
C            6.35773263280076        0.96503654355032       -0.48957579281908
C            6.92617259565717       -0.08882748299641        0.20470037123023
O            8.18379572365094       -0.09574892458505        0.74141168569907
C            8.97748128632925        1.04893766469821        0.56283194446540
C            6.18189309079750       -1.27804420529940        0.36934817733820
O            6.81733284675968       -2.27341064055551        1.05870993437760
C            6.16226401671593       -3.50670472310680        1.21473155352770
C            4.91738340316733       -1.36538485319649       -0.18675800716599
C           -0.05251347634758       -1.41008696710525       -0.99568331886437
C           -3.80899189144343        3.65916335526664        0.89276450284882
C           -4.36490094502893        2.91094231302464        2.02664311872936
C           -2.88021153700516        4.74341281622500        1.01222500486435
H           -4.39053609514398        0.69324339983011       -1.29737903579062
H           -6.59377485515413        0.22374535099794       -1.90652218923599
H           -7.02608608719634       -1.25071193297025       -2.81020936540344
H           -5.42518462573579       -0.51194833371910       -3.02918455409062
H           -5.17209588764902       -3.66314233748263        2.63841753144947
H           -5.69686559516417       -4.92873684848327        1.50023181300697
H           -3.96613633995034       -4.52826034245976        1.64857960415115
H           -3.22563876903319       -2.37431524086893        2.33368495112510
H           -2.04022901382770       -0.30351405196178        2.15850990458334
H           -3.16600308401057        2.35947586969309       -1.64588252673937
H           -1.59330333528383        3.01672748291638       -1.17079981514921
H           -1.94796093163017        0.17334886442960       -2.00721107369034
H           -1.39757904262236        1.49031324081765       -3.05000127808617
H           -0.10551177553231        1.89593799909428       -0.32657639638508
H            0.70795155328978        1.54926144110337       -2.28737611063180
H            2.00093604432463       -0.59624687601638        0.42956140194410
H            2.08526934542119        1.04172821085898       -0.19447294716561
H            2.86847815995673        0.16293930453404       -2.36140457187671
H            2.77855536374735       -1.49623267547076       -1.73195910675410
H            4.66565725564226        1.69492117679942       -1.57826823926107
H            6.90724962241844        1.87819287388897       -0.63548926629230
H            8.52345991720935        1.92604216729256        1.03502277110544
H            9.15246821513719        1.26036169676973       -0.49909429746908
H            9.92862554435283        0.83336600300296        1.04762137015895
H            6.85780758999448       -4.15294335323476        1.75189949811252
H            5.24744711515291       -3.39802564639919        1.80315083335095
H            5.92200631414303       -3.96935918067243        0.25004319313189
H            4.33994207450452       -2.27183644328355       -0.08353435229448
H            0.02787701551438       -1.92466359510182       -1.98100583583804
H           -1.09124603230983       -1.32530391975990       -0.66702526824441
H            0.44855210946262       -2.02898626371638       -0.27345284778358
H           -4.57591509605175        4.04250694946378        0.26237504885855
H           -3.60174201106863        2.40381150746212        2.60696368268417
H           -5.03909888254853        2.14211352268592        1.65554518033827
H           -4.96024909613568        3.62020829406475        2.58481137610298
H           -1.98455647542693        4.53801228474212        1.55492274935727
H           -2.70237873968589        5.14757131160928        0.02015745648676
H           -3.53575056775683        5.43738157526037        1.53458557370318
H            0.05680702276002        2.14185284245755        2.40039240569642
