72
 energy: 71.272115540924 xtb: 6.6.1 (8d0f1dd)
N           -0.91049140202939        2.09649646716797        2.02401067239206
C           -1.07628828779171        1.87813892991582        0.79678850168250
C           -2.37570262453494        1.69519038433131        0.21024210195658
C           -3.11403616924100        0.42442713947833        0.42743494945916
C           -4.13640121598192        0.05496118547883       -0.48817083796856
C           -4.81772691478966       -1.14068551330240       -0.41408685023522
O           -5.78829358193248       -1.57781226541076       -1.28295156548086
C           -6.23452598331738       -0.71416201133743       -2.30201202250355
C           -4.48967620213545       -2.03674013361788        0.61723737690484
O           -5.17942512148233       -3.21226857189385        0.59754014843915
C           -4.95154367257916       -4.12126396962896        1.63710226199897
C           -3.50399674645515       -1.68620807127259        1.52254234067584
C           -2.82871075653228       -0.48416175497503        1.43611663916627
C           -2.21492804909467        2.14171972001652       -1.20651610941475
C           -1.39483751029376        1.12045078460847       -2.00854341430531
C            0.01839125571904        0.99252128885190       -1.62225650486021
N            0.58963616274748       -0.11991449747332       -1.02345256152799
C            1.91734873193075       -0.00657996425487       -0.45365498652783
C            2.98562663799149       -0.46682667185638       -1.45841868567835
C            4.36892518893446       -0.32475413722179       -0.90842483324215
C            5.08908915132010        0.84652484390749       -1.04080420651496
C            6.36376605287074        0.95244028779178       -0.50056338893530
C            6.93646304075165       -0.10087644894792        0.19111635589501
O            8.19628685958640       -0.10726170073266        0.72130020112078
C            8.98813411996707        1.03785648535161        0.53879255719060
C            6.19396638427585       -1.29000738352313        0.36088493267681
O            6.83265450876716       -2.28441522683195        1.04818029836942
C            6.17844050336162       -3.51748513913589        1.20886894150983
C            4.92671513432975       -1.37842240282738       -0.18846979625941
C           -0.05306278317597       -1.40361641520940       -0.95699722471338
C           -3.73883713389663        3.54578136757993        0.86663758529482
C           -4.34852861865433        2.88598091085575        2.03877126024852
C           -2.91801515579209        4.72144121508595        0.97236692691385
H           -4.41723423172704        0.72025453553598       -1.29835691066850
H           -6.61996312861638        0.22821639367577       -1.89632905138785
H           -7.04081889135753       -1.24323326336048       -2.81074246897770
H           -5.44848397038487       -0.48639970809793       -3.03036954508048
H           -5.14327226756111       -3.66987323086329        2.61569031536026
H           -5.65521995764123       -4.93609989582962        1.47239847272698
H           -3.92974226380309       -4.51589524281717        1.61874356674287
H           -3.21022320728747       -2.35880977176169        2.30860452121321
H           -2.05379624580734       -0.26908439644274        2.14708315665895
H           -3.16764590801854        2.38566950987471       -1.67306156504655
H           -1.60301425799899        3.04029858304244       -1.18790467823229
H           -1.92419437830182        0.17486806353976       -1.97579499008488
H           -1.36154479199014        1.48217869124550       -3.02080750786739
H           -0.21645045941176        1.97591121273078       -0.18769430562933
H            0.73070522021906        1.61253105116211       -2.15930394394981
H            2.02307393157145       -0.60867179747982        0.45654080454580
H            2.10762756869572        1.03097579484582       -0.16366777101981
H            2.85776609721398        0.15173026204569       -2.34383807177475
H            2.77090027317496       -1.50748519517109       -1.71221185690505
H            4.66516378599913        1.68125565116940       -1.57882492895255
H            6.91149778206280        1.86600729447168       -0.65005338647925
H            8.53601552158984        1.91491602153481        1.01308449586776
H            9.15734152902495        1.24896717887202       -0.52398082178371
H            9.94177161416576        0.82252066257308        1.01861032809506
H            6.87729292985300       -4.16286092392085        1.74252784356851
H            5.26678865540015       -3.40873789110958        1.80248914263486
H            5.93283919022288       -3.98095478098040        0.24592026333516
H            4.34939636700539       -2.28432037837175       -0.07896353451371
H           -0.00517806864372       -1.90034387585503       -1.95092243699385
H           -1.08568642821548       -1.31733960421007       -0.60908957575370
H            0.46147698402940       -2.04440080678975       -0.26199655758224
H           -4.51034907987270        3.89448367466231        0.20895084573640
H           -3.59476036757047        2.42376590705830        2.66985185503785
H           -5.01554004761518        2.09828746602934        1.69220677656378
H           -4.98085669408290        3.61756830131233        2.53010366517663
H           -2.03069440658427        4.56517912793622        1.53943590031339
H           -2.73176823713850        5.11163041716654       -0.02505709930073
H           -3.61350361856499        5.40740402357440        1.45881390763172
H           -0.00819518686805        2.21219735496159        2.43181054421808
