72
 energy: 56.898228675599 xtb: 6.6.1 (8d0f1dd)
N           -0.97799001417419        2.17522124146219        2.05565096162125
C           -1.13053545077659        1.90144179441523        0.83957155144427
C           -2.45643548765682        1.79247711777069        0.23705912999674
C           -3.15336013449990        0.46227649208879        0.43003188164806
C           -4.15895047528726        0.08006568826485       -0.49305701232688
C           -4.82278650212116       -1.12713853808667       -0.42701195975013
O           -5.79236105484819       -1.56865344651811       -1.29258970645921
C           -6.25244953297170       -0.70155183262923       -2.30201803258012
C           -4.48126102203872       -2.02689112901669        0.59770637598635
O           -5.15895561834692       -3.20817329009890        0.57593165169030
C           -4.91948902736838       -4.12052332183210        1.61162990811965
C           -3.49729514917881       -1.66923411522842        1.50102133497593
C           -2.84269277033222       -0.45226739882672        1.42237798446179
C           -2.22473301340534        2.16741718048716       -1.20576217968471
C           -1.38426268088067        1.13338288868163       -1.96752687769618
C            0.02432488939747        1.02676334380408       -1.53205386083028
N            0.60172528652119       -0.12148215686323       -0.97608256005051
C            1.93048874416581       -0.01546532563786       -0.42063973460562
C            2.98418502829618       -0.47777794588956       -1.44041868440679
C            4.37275265244443       -0.33905608065800       -0.90622741717028
C            5.09154074370459        0.83285867898232       -1.04354618380809
C            6.36921652597343        0.93985309915117       -0.51159873848313
C            6.94592933359143       -0.11305704949878        0.17716571082477
O            8.20854976435959       -0.11892812894685        0.70130043173038
C            8.99847147295560        1.02641376685221        0.51473655947016
C            6.20535188683225       -1.30209519953519        0.35228980922634
O            6.84793733605628       -2.29565588799257        1.03751780640368
C            6.19428758695540       -3.52813497540228        1.20295148595299
C            4.93522573959909       -1.39173307833778       -0.18908903527337
C           -0.05279700308533       -1.39649450972815       -0.91960715108414
C           -3.67633462911260        3.43439054980215        0.83813821009063
C           -4.33700609077920        2.86562429031001        2.04659302551391
C           -2.96287831016958        4.69562482120312        0.92880670546315
H           -4.44332763768722        0.74774837587011       -1.29941188700721
H           -6.64570732617581        0.23295047925375       -1.88586556344234
H           -7.05520045718372       -1.23561557576825       -2.81046262011337
H           -5.47158563936837       -0.46085200231570       -3.03142896414271
H           -5.11440960706141       -3.67610894274407        2.59286323167614
H           -5.61357842925821       -4.94314414179717        1.44489781677987
H           -3.89356446540299       -4.50304764599500        1.58893859424176
H           -3.19490831017462       -2.34426469038337        2.28304971876013
H           -2.06687519526996       -0.23659778793055        2.13299158984063
H           -3.16565899797041        2.41566712625530       -1.69643008745456
H           -1.60873485443144        3.06683444017536       -1.18976440941814
H           -1.89923517460309        0.17935513146968       -1.94061678174151
H           -1.32280423238060        1.47224903137234       -2.98858663233002
H           -0.27503633254842        1.88095165347440       -0.14044120220627
H            0.74709977872220        1.66830770896643       -2.03549804825339
H            2.04346288990557       -0.62152856201775        0.48494534215402
H            2.12916779089849        1.02119251622674       -0.13231880765204
H            2.84694364038919        0.14137408634756       -2.32484919558378
H            2.76243893607029       -1.51739645436938       -1.69138365513969
H            4.66330947515530        1.66731850962440       -1.57841371844780
H            6.91516571755275        1.85385850636157       -0.66487326953173
H            8.54875406678025        1.90375349632090        0.99109587809238
H            9.16211541294992        1.23723054771568       -0.54887111195457
H            9.95448655744757        0.81084477694199        0.98958290703686
H            6.89665858676424       -4.17241485476871        1.73309844540794
H            5.28582448478776       -3.41946546089437        1.80174788451360
H            5.94329627323727       -3.99249511301223        0.24179226071387
H            4.35793045514410       -2.29703921471336       -0.07323220916329
H           -0.03649150531911       -1.87951950194332       -1.91922767032848
H           -1.07941902585644       -1.30760466948223       -0.55273756246891
H            0.46973130131291       -2.05796779810746       -0.24688403899799
H           -4.45850877627862        3.75061146057627        0.16168230249665
H           -3.58944095646993        2.46078588532463        2.72269640217282
H           -4.99414231545306        2.05584103276543        1.73018459407899
H           -5.00349967476026        3.61231125969237        2.47670644244435
H           -2.08435089889440        4.58776888287214        1.51892403943739
H           -2.76556634433311        5.07794994634513       -0.07074480380151
H           -3.69114951285495        5.37225460207437        1.38516929316059
H           -0.07247446997860        2.26865748333416        2.46555201080308
