72
 energy: 59.227626748128 xtb: 6.6.1 (8d0f1dd)
N           -0.50253452854308        1.61669539006162        1.89969151094190
C           -0.88156228329617        1.41578064907839        0.76244319850016
C           -2.05359700204727        1.27265113227557        0.13177640170323
C           -2.91446899595756        0.13224688344944        0.37787517563274
C           -3.98878973590291       -0.12724823781443       -0.49006004446082
C           -4.76736031165357       -1.25119446878434       -0.35178326025765
O           -5.75746432606138       -1.64070922269421       -1.21547043329702
C           -6.11514164451924       -0.80679862332998       -2.29929838286550
C           -4.52733951217700       -2.12135032902318        0.72620826388441
O           -5.32181397982059       -3.21971144773072        0.74796182094807
C           -5.17799571530219       -4.11503501082286        1.80986031852033
C           -3.51227489504039       -1.83467425757099        1.62108601416884
C           -2.72566127883849       -0.71591444142433        1.46162348068999
C           -2.11669807337247        1.98497235101725       -1.16270270726026
C           -1.49967762818793        1.09039701516764       -2.22049080083945
C           -0.00838750569618        0.88639560303122       -2.00180470254179
N            0.43015363940927       -0.07262424355151       -1.02493767794902
C            1.80652083428020        0.08807185866964       -0.59833222723380
C            2.95208208458166       -0.36224341974400       -1.54842430301325
C            4.30659794991927       -0.22319189113869       -0.90729286272414
C            5.04785084217721        0.93881934859301       -1.01536025639942
C            6.30598427885720        1.03922192740540       -0.43264941500799
C            6.85121858717561       -0.01664969090039        0.27478333723235
O            8.09198459302530       -0.02958812293394        0.84698086866266
C            8.90262194641172        1.10990699420134        0.70471575767536
C            6.09830181112615       -1.20552117785263        0.40850793077617
O            6.71748654620427       -2.20690397487439        1.10570738203106
C            6.06348503879262       -3.44297717673398        1.24442361007739
C            4.84777337581386       -1.28633872559531       -0.18135632824297
C           -0.03152677957519       -1.42492872911180       -1.13084482949035
C           -4.12970718793806        4.19766908984265        1.07328293852389
C           -4.45026687372634        3.08522433467429        1.96251266046006
C           -2.88692372799835        4.98645068753558        1.17339258616056
H           -4.23357539531101        0.54171832434318       -1.30595200093599
H           -6.44361223561900        0.18427251583069       -1.96678502077344
H           -6.94661761285034       -1.30494494280469       -2.80029568480433
H           -5.30203167098870       -0.67611344452653       -3.02041981931676
H           -5.34778324631851       -3.62060842471710        2.76984277658608
H           -5.95125793266029       -4.86376809636924        1.64807229609978
H           -4.19257635410486       -4.59663709995106        1.81783355131431
H           -3.29025696994574       -2.49395600452234        2.43994716036310
H           -1.94891064773393       -0.50999445361341        2.17719449262269
H           -3.12675615167060        2.25113019400699       -1.45903087466887
H           -1.52236956337136        2.88793125515024       -1.04806960497137
H           -2.06587394522097        0.16632865318044       -2.23534346317553
H           -1.60698353080998        1.59002001237435       -3.17232525553591
H            0.19937664821613        1.70942504739125       -1.24001401787865
H            0.57537212404917        0.97171132182176       -2.93316788360033
H            1.90528841395848       -0.48518286127509        0.33034537373791
H            1.97084057715051        1.14072360638682       -0.35129948337672
H            2.91395175549266        0.24600513498444       -2.44804483382848
H            2.79301627223620       -1.40516319148466       -1.83344673367298
H            4.65608343273143        1.77853966976898       -1.57103261826667
H            6.86597106631571        1.95055105845187       -0.55736997905835
H            8.44190858017820        1.98738242424788        1.16846353380292
H            9.11961580652760        1.32782327699593       -0.34840548986163
H            9.83380186369752        0.88116271958831        1.22198782888092
H            6.74564665913443       -4.08634687899782        1.80181977944435
H            5.13189187409294       -3.33804226259431        1.80628346695130
H            5.85386887664697       -3.90567891256873        0.27359955366100
H            4.27272650567000       -2.19618486803583       -0.10163204154062
H            0.32648594800855       -1.92073622722733       -2.04425099240383
H           -1.11977292300878       -1.39861563974633       -1.01197451866297
H            0.32346091499258       -1.95842654150938       -0.25458066054525
H           -4.96876544855943        4.66904586819706        0.60013081600340
H           -3.56674763829895        2.52170846825498        2.25069582270094
H           -5.12609784219295        2.39764768884069        1.47967395074255
H           -4.93839374825741        3.47347396999446        2.85274360813583
H           -1.95972297648765        4.56163631106326        1.50815369193785
H           -2.71704475217081        5.46385558859970        0.22336950870474
H           -3.20557612888539        5.68381166798127        1.92068481504125
H            0.42930684510110        1.73887340408493        2.19091915428190
