25
 energy: 103.766106363089 xtb: 6.6.1 (8d0f1dd)
C            3.31964578007294        1.16515315577216        0.08679169855775
N            2.36634270926262        0.08279021668145        0.07029166222582
C            2.70814776081412       -1.19516350458378        0.05475187053852
N            1.60563899808557       -1.96684743820600        0.05082739719510
C            0.45903710765085       -1.12032948368344        0.07070862586560
C            1.00849930752833        0.19783767785866        0.08287691557061
C            0.24531990696491        1.44548426143539        0.06371319885527
O            0.78617417928374        2.55590884275363       -0.07299644735849
N           -1.04793589130544        1.18010920633445        0.23524992237560
C           -2.01556010042394        2.21311693336852        0.20450449722079
C           -4.10545845241260        0.41291630484692       -1.24692487099598
O           -4.22159344793436       -0.68172360640534       -0.98113476239703
N           -0.76274708218671       -1.44794487758898        0.09664951903011
C           -1.26844468129665       -2.78522279989392        0.06391566155119
H            3.81539441537479        1.21013230527047        1.05755552369080
H            4.07134520940163        1.01634015325531       -0.69010223013276
H            2.78074360347448        2.09603909973883       -0.08547456123707
H            3.71623719928164       -1.56027706981066        0.04988515145092
H           -1.65638052073639        3.11595071651509       -0.31139249796442
H           -2.90483649899076        1.81390618988148       -0.32547869489506
H           -2.31652632372234        2.48752222284727        1.23779235917895
H           -0.93452117028260       -3.39199378647155        0.91407736603420
H           -1.00892014994244       -3.31566298034009       -0.85940162541571
H           -2.35456182738272       -2.71666382023088        0.11789319246288
H            1.60161677783752       -2.97327662841764        0.04343913600537
