25
 energy: 102.935962612671 xtb: 6.6.1 (8d0f1dd)
C            3.32914863224360        1.16180673885026        0.08679180074289
N            2.37981629512899        0.07604797062366        0.05996346316584
C            2.71808399057382       -1.20674178630004        0.04618190776131
N            1.60621257296638       -1.96571765489100        0.05314550254583
C            0.46887473818198       -1.11973378700840        0.06602849817264
C            1.01966156861461        0.19511343339662        0.07717607000942
C            0.26530540249925        1.45843411269392        0.06306798401861
O            0.82283461608699        2.56261506773190       -0.05253115307087
N           -1.02736299910639        1.24574810495554        0.21914479459399
C           -2.02443337266811        2.23771011287219        0.17327993084509
C           -4.23731293619037        0.38187440399485       -1.08390633054566
O           -4.08100978645885       -0.73508012311122       -0.99531913315840
N           -0.76605027812138       -1.43065914899623        0.04941846710589
C           -1.28191071339717       -2.75884105588956        0.05253914313266
H            3.82456858321154        1.20357187536928        1.05823757543829
H            4.08113309508522        1.02195574186269       -0.68949796506128
H            2.78611178881157        2.09584720892865       -0.07765168747817
H            3.72257715059368       -1.57936161144548        0.03045583456665
H           -1.71745946380504        3.14840469698785       -0.35635947070382
H           -2.90375549280721        1.79562785135466       -0.32760304705521
H           -2.33479078006448        2.49713733791065        1.19324871404231
H           -0.93815713104495       -3.35142481809284        0.90941791817620
H           -1.02377339163327       -3.29832879599363       -0.86734969918586
H           -2.36796008337024       -2.67560046086230        0.10377626573677
H            1.59186229964291       -2.97137662619797        0.03537852839874
