25
 energy: 112.458674847306 xtb: 6.6.1 (8d0f1dd)
C            3.30420501970247        1.15408844621582        0.12200673892797
N            2.35177986841404        0.06523924335863        0.07239187132178
C            2.70870157480942       -1.21658856825875        0.06791324127439
N            1.60855883115880       -1.99564432664782        0.07230907810232
C            0.44971709101285       -1.16565533397940        0.06296063455165
C            0.98005801394871        0.16274768968332        0.08333014323677
C            0.15342557122277        1.38608093139955        0.04391486244067
O            0.68549630154043        2.49557789095988       -0.07473101868089
N           -1.21270513992141        1.11060520431643        0.12007442126532
C           -2.06616330646249        2.26714935692231        0.16491832552685
C           -3.41253771415222        0.52976211348337       -1.24050451335973
O           -3.96828326569416       -0.39295486300441       -0.88059314361352
N           -0.78058530153170       -1.47323866451096        0.02588060546608
C           -1.29729525158994       -2.79375993842277        0.03367201112718
H            3.79484197940732        1.18067210863665        1.09866143082474
H            4.06767942870865        1.01712034762772       -0.64684818873496
H            2.77976312838133        2.09709082362089       -0.03788433611952
H            3.71852098242992       -1.58081730300023        0.07558655985745
H           -1.78808544415448        3.10054836011858       -0.49573320299087
H           -3.11589428874943        2.04366060905351       -0.09405965529560
H           -1.97694609381927        2.64578616185267        1.17839332708286
H           -0.90708238236163       -3.34523013299242        0.89151804045784
H           -1.02935703569831       -3.32726116310178       -0.88605926175863
H           -2.38676910351034       -2.72694646218045        0.09497482635245
H            1.59816403246440       -3.00126778336600        0.04622632162579
