25
 energy: 23.372909983610 xtb: 6.6.1 (8d0f1dd)
C            3.26879636435923        1.16315653295444        0.10562291164343
N            2.28302515726407        0.11007029377188        0.07382758087252
C            2.58501365316410       -1.23105790084064        0.10165283715556
N            1.40756000617501       -1.94248016673739        0.02519103618741
C            0.33299908770627       -1.08788360042571       -0.03016628606861
C            0.88061992277723        0.19260108205213        0.00873130222213
C            0.04274649633017        1.30134113653937       -0.08450142807128
O            0.41974483937368        2.47628251301347       -0.04686550333857
N           -1.46476126577132        1.02881298017931       -0.19611311522796
C           -2.22546870624398        2.22782809050321        0.05856759028885
C           -2.14030476687133       -0.10007514238403       -0.46775544118948
O           -3.27263988850404       -0.40928739698638       -0.66456935104269
N           -1.03267791770990       -1.28461543683638       -0.11528200547654
C           -1.41929552396856       -2.67401152103925       -0.02608645453520
H            3.77837517625258        1.20666555875371        1.07584979684940
H            4.04064818661150        1.00866139912401       -0.65974087166359
H            2.75710264640802        2.10884479189094       -0.07027087250800
H            3.58505136105884       -1.61752038145737        0.07142273390764
H           -1.65616883066504        3.10032547304957       -0.29048370627773
H           -3.12841712206928        2.05244679400311       -0.50520371293728
H           -2.52417161070135        2.33824816095672        1.11273512025465
H           -1.01304402846959       -3.17002922022701        0.86944221311823
H           -1.07850323089416       -3.22634082763625       -0.90876404573760
H           -2.50299075317227       -2.70022578360430        0.01478985807124
H            1.42886609826956       -2.94819027302860        0.05292096557344
