25
 energy: 75.550166991180 xtb: 6.6.1 (8d0f1dd)
C            3.27854148014619        1.14814926370572        0.12126711175428
N            2.29844352056500        0.09659932744021        0.07865637003170
C            2.61882322514565       -1.21320771407134        0.10967593621506
N            1.48195550429271       -1.96705944888148        0.03510166074896
C            0.36093141215692       -1.14419703986859        0.00961089542644
C            0.90201396000203        0.17042318135382        0.04114057163363
C            0.15050021329479        1.29695672205261       -0.01072407843739
O            0.45989660847676        2.47200221148483       -0.06222374167171
N           -1.62379741021785        1.00958016313650       -0.14826991408549
C           -2.22360461848500        2.29876252799091        0.13553692372021
C           -2.51800056233650        0.24768488230671       -0.62237095095685
O           -3.42404033257621       -0.39533925336256       -0.96916039252270
N           -0.91468725705816       -1.36373906459091       -0.03621618375158
C           -1.35685476579996       -2.72058120316569        0.00672942969227
H            3.79957742220210        1.18100922991835        1.08613089605789
H            4.03673247217826        0.98376500072507       -0.65110741219330
H            2.78871467564151        2.10680069319896       -0.05460869050318
H            3.61928985456552       -1.58087191330277        0.08093044982481
H           -1.72103574866971        3.10162499491983       -0.40891613599819
H           -3.22616116193453        2.11314744249527       -0.22875442886705
H           -2.31715795455729        2.48138940706575        1.20652635030774
H           -0.93583138585243       -3.20655764525957        0.89233357096062
H           -1.04169009300303       -3.26302989131329       -0.88881671385837
H           -2.44849446274653       -2.74985078529008        0.06506665625129
H            1.50112574732018       -2.96680431519923        0.05444457171597
