25
 energy: 117.716297811561 xtb: 6.6.1 (8d0f1dd)
C            3.29149036920282        1.14747835684163        0.12569323600518
N            2.32638738996948        0.07675617183961        0.06975467776933
C            2.67531118052522       -1.20707946614001        0.08028963333013
N            1.57557031703467       -1.98769657195934        0.06431788740315
C            0.41969765158475       -1.15568726524595        0.05275629452725
C            0.95326471482168        0.16156138498938        0.07263012914282
C            0.09731590156656        1.35934060644451        0.01590603052554
O            0.62154739017986        2.47631970046487       -0.05959479757301
N           -1.30456038841482        1.09149586403884        0.07634875790458
C           -2.10817477449225        2.28798634948091        0.18555409313902
C           -3.13146934772276        0.51983264135653       -1.09007916320711
O           -3.78482352891824       -0.39760642060887       -0.91986504034877
N           -0.81603459162526       -1.43663022161561        0.02061202436429
C           -1.30104546622789       -2.77032657734874        0.03099616376887
H            3.78186621209677        1.15906646290726        1.10207585132195
H            4.05579041715345        1.00009218911913       -0.64083270957468
H            2.78713999109514        2.09701390826724       -0.03440108631862
H            3.68306032120267       -1.57907099297664        0.07292352106199
H           -1.83653395483769        3.07458145997136       -0.53306496226519
H           -3.17126382671532        2.05722893473898        0.05204691794865
H           -2.01482161105807        2.63200294519401        1.20660849473532
H           -0.88512348629513       -3.29810145307359        0.88989842241967
H           -1.02521955203135       -3.30419526561578       -0.88207009551587
H           -2.38700806064865       -2.76486592029622        0.11353874687933
H            1.57291768343740       -2.99150168108271        0.05333672731810
