25
 energy: 58.712140580192 xtb: 6.6.1 (8d0f1dd)
C            3.27310659800271        1.15164097369351        0.11742013884181
N            2.28357016419547        0.10170297878123        0.08681297513262
C            2.59809619311214       -1.21791576683397        0.11427271047534
N            1.44584924396530       -1.95719517836954        0.03108648155320
C            0.34646251899176       -1.12468937945069       -0.01078536748285
C            0.88800427668507        0.17631362113014        0.03469986965550
C            0.09680369389539        1.28945338119199       -0.05336501040717
O            0.43745795449556        2.46832100047485       -0.05667733643292
N           -1.56318454965970        1.02378059682556       -0.16914903573197
C           -2.22425386369444        2.27278367519742        0.11312394417292
C           -2.36284029236887        0.10240217296542       -0.56484805546046
O           -3.37547802570526       -0.39957303662377       -0.86321078677031
N           -0.96728568353355       -1.33341788207443       -0.07159226039103
C           -1.38066888390244       -2.70317359373988       -0.00400293523402
H            3.79694499824831        1.18894588220105        1.08092825816017
H            4.03612731654246        0.98948006723484       -0.65272397180682
H            2.77800393507588        2.10765908602251       -0.05832172959627
H            3.59757115032377       -1.58850655338586        0.07401736406029
H           -1.69843543248089        3.10485337917999       -0.36394242560610
H           -3.19183902286244        2.09083536292095       -0.32529151029522
H           -2.39409398000154        2.43462410724632        1.18479969916980
H           -0.96205637172372       -3.19215915897335        0.88584698771027
H           -1.05422132923528       -3.25170396644576       -0.89398177305048
H           -2.46861133550557       -2.73740643907263        0.04841160629400
H            1.47357078830925       -2.95917933118072        0.05593859774976
