25
 energy: 47.955794591658 xtb: 6.6.1 (8d0f1dd)
C            3.30775420696837        1.55771462542594        0.13305176276667
N            2.63677341780306        0.27984158486554        0.05488959263778
C            3.08833169859413       -0.97384304929169        0.08408938818519
N            2.03738757255004       -1.84367671846926        0.05015574947834
C            0.85626113958890       -1.12388340864560       -0.00666418797507
C            1.27563614487039        0.21506919417174       -0.01776208058770
C            0.34531902578885        1.29805909468624       -0.08402953044379
O            0.63065800422476        2.49173544373820       -0.12321951717523
N           -0.93610885889172        0.84117503780802       -0.07934630184665
C           -1.99884382514759        1.83148799869543       -0.06611084047249
C           -1.32277051681194       -0.52180783456680       -0.02730962553746
O           -2.52105420603297       -0.67011366887705        0.02015855761733
N           -0.39875350019965       -1.53014574995221       -0.02236982439358
C           -3.47673442869126       -3.01025016295123       -0.13160759405003
H            4.01627744759758        1.58256734203900        0.95633056659218
H            3.82953653806333        1.77261650192534       -0.79925044812492
H            2.53470602269515        2.32130769933714        0.29636411845664
H            4.11598379061040       -1.27178727765964        0.13829242643980
H           -1.51207229187627        2.80635198295883       -0.07308838863326
H           -2.63631608614649        1.70132177763518       -0.93949263047883
H           -2.60938786103966        1.71065625897013        0.82919965980363
H           -3.25226116338257       -3.55043568138858        0.75335658774254
H           -3.31958881298233       -3.44347647339032       -1.08648270044799
H           -3.76985228208576       -2.00166618660527       -0.06308258828717
H            2.10709633415157       -2.85236233316737        0.08607239145852
