25
 energy: 13.395173745192 xtb: 6.6.1 (8d0f1dd)
C            3.23652627058039        1.28393582472510        0.10815099878314
N            2.38993897978699        0.11620095075386        0.02326528317544
C            2.74678571786265       -1.22107137643994        0.04424319479570
N            1.59166608436694       -1.97571621286569        0.02638530144889
C            0.48047483326412       -1.19193657282789       -0.01433225392528
C            0.98383508745572        0.13585968766445       -0.01334247607692
C            0.19265799980282        1.29928607645369       -0.03926071901363
O            0.53679988265059        2.48835938522519       -0.05132711233546
N           -1.17650841510634        0.95482471234454       -0.04757748267462
C           -2.14833705385504        2.03242203730602       -0.05365663403899
C           -1.71434607779794       -0.27893360436139       -0.04241565047946
O           -2.93310137515998       -0.35267736346433       -0.03570754831194
N           -0.91613307831548       -1.46029867081283       -0.04310098304752
C           -1.87544359154443       -2.62057162193746       -0.07465769013357
H            3.80850832639096        1.31542533937046        1.04291358725122
H            3.95536138066372        1.32057060398081       -0.71899566411950
H            2.59609976505286        2.16956675891157        0.07072594789402
H            3.74718610407659       -1.60075424835865        0.08058711108797
H           -1.59072983424387        2.96677854751405       -0.03479424657291
H           -2.76470502677341        1.95415810652516       -0.94939331623863
H           -2.79347136688153        1.94034795061663        0.81996540455660
H           -1.86031188358402       -3.27067157841592        0.79990321672378
H           -1.86677139620843       -3.21527922678910       -0.98850149317726
H           -2.84705549151527       -2.12310766001234       -0.05869271185298
H            1.62262057524765       -2.98143987004822        0.04718367325455
