  25
        -41.98363621
 C          2.9798160939        0.6902612169        0.3981565394
 N          1.9056268498        0.0250399800        0.4837531104
 C          3.3624179344       -3.2605682433       -1.4181839932
 N          0.6777268698       -2.3986277571        0.3697700532
 C         -0.4738100187       -0.4662841175        0.1556218103
 C          0.6545622217        0.3718631788        0.2268393923
 C          0.1844888219        1.7689824497        0.0445927001
 O          0.8582101297        2.7718626580        0.0202605855
 N         -1.1848894522        1.6886922435       -0.1219056134
 C         -2.0374155293        2.8288272650       -0.3233619532
 C         -1.6536548251        0.3822369571       -0.0696790153
 O         -2.8172973205        0.0692441631       -0.2049707083
 N         -0.4542699822       -1.8197797344        0.2584591330
 C         -1.6936314986       -2.5714600580        0.2730788618
 H          3.8854849467        0.2513156883        0.7899674414
 H          3.9386976015       -2.4864535384       -1.8827426552
 H          3.0363405847        1.6838169547       -0.0508353537
 H          3.5180487012       -4.3198683112       -1.3971687837
 H         -1.4156439810        3.6868746659       -0.5769019141
 H         -2.7459035608        2.6176838511       -1.1262686351
 H         -2.6039205906        3.0474267162        0.5860427686
 H         -1.8932182983       -2.9263352999        1.2878219903
 H         -1.6053257528       -3.4375815061       -0.3851751983
 H         -2.5279405512       -1.9486849721       -0.0495805126
 H          0.6274996877       -3.4080337063        0.4737749541
