25
 energy: 104.819270925132 xtb: 6.6.1 (8d0f1dd)
C            3.31450743426094        1.19169060631422        0.04084215440279
N            2.36170401293454        0.10584612124195        0.03952076567108
C            2.70650321924779       -1.17855376877421        0.01855066339219
N            1.60251864753788       -1.94347574686511        0.05805404817386
C            0.45869968105230       -1.10020854498934        0.11770450619107
C            1.00418901228619        0.21758739295036        0.10139663356358
C            0.25185800480167        1.47884447677289        0.10471202648652
O            0.79655052828755        2.59093720105241        0.01792890220327
N           -1.05379408451410        1.23687247972957        0.20073863294117
C           -2.02513065765964        2.27174805373753        0.20402776204077
C           -3.61973212612576       -0.84214118391676       -1.50047212415785
O           -4.49096646406822       -0.19545860219919       -1.20207017938397
N           -0.76082673513984       -1.44123186914336        0.20342408921810
C           -1.31501206027365       -2.75466070638749        0.20932171833742
H            3.80465833935896        1.26777705977316        1.01574623206940
H            4.07730942684383        1.03382047705360       -0.72181286448852
H            2.77356788959559        2.12179729959472       -0.15018587362719
H            3.71753416343089       -1.54499283637490       -0.02504651191897
H           -1.57879900291941        3.27048048229505        0.25249453827380
H           -2.64751226409487        2.19708645408422       -0.69680766503199
H           -2.68484192851964        2.12401973542074        1.06948942195403
H           -0.80323846486218       -3.46396904417500        0.87301046695372
H           -1.32592003106411       -3.16481765044511       -0.80920930800510
H           -2.35001899969879       -2.65269887484129        0.54831092055933
H            1.57159643341415       -2.94835344363211        0.04165923876010
