25
 energy: 20.161910299105 xtb: 6.6.1 (8d0f1dd)
C            3.26345318926939        1.18437631727658        0.07665150626902
N            2.28021453392128        0.12992101733789        0.05956733944932
C            2.59464684789365       -1.21224248577702        0.09411417087663
N            1.41269300749434       -1.93180442307396        0.02458156985752
C            0.33952296548569       -1.08221838741839       -0.03813678507662
C            0.88352425844042        0.19455188986737       -0.01108603252512
C            0.03950955159207        1.32890934602145       -0.04692028250426
O            0.47716894751586        2.48077248442606        0.05524557238844
N           -1.37599969473818        0.98921910367099       -0.17173473782994
C           -2.19788778719183        2.17601364361720        0.02948225693594
C           -2.02709249446940       -0.21761321052272       -0.59564644976782
O           -3.19914901433648       -0.37223768862609       -0.83469766445563
N           -1.02453721116774       -1.31994424095496       -0.12845197803169
C           -1.45856554622325       -2.68425521192061        0.05074647057107
H            3.77404775871290        1.25027498834150        1.04471698207701
H            4.03744661525536        1.01139407067606       -0.68128176053962
H            2.74795281497344        2.12330211964942       -0.11718260252502
H            3.59459467631809       -1.59039307821293        0.03467879347427
H           -1.58156423325252        3.07571911419556        0.10917615630280
H           -2.83445871025650        2.26866568912765       -0.83413533166039
H           -2.81008808840627        2.07928330936299        0.92468121549214
H           -0.90475005322880       -3.20321070168005        0.85456062770248
H           -1.34655713938293       -3.25521529831949       -0.86923094312366
H           -2.51613595449945       -2.65045627227759        0.29963582108841
H            1.44443682299555       -2.93635612921614        0.04837753844461
