25
 energy: 104.477972331816 xtb: 6.6.1 (8d0f1dd)
C            3.32302282991129        1.19263881142233        0.04281036833367
N            2.37723364797924        0.10468768171260        0.04427324069731
C            2.71878805317725       -1.17980221350932        0.03257036330939
N            1.61070694833012       -1.94309728850040        0.06821918597732
C            0.47170135116385       -1.09991043765469        0.11160559652037
C            1.01870379437688        0.22282008445276        0.08656682060974
C            0.26281206799909        1.48916700167527        0.09407085445645
O            0.82311477303605        2.59489679253472        0.03173368950574
N           -1.03065184050746        1.24057065041337        0.17505183238781
C           -2.01268852149455        2.25790675441820        0.18031895779837
C           -3.72907858417164       -1.03587738440745       -1.31483119407032
O           -4.40700999297628       -0.13936218328767       -1.22414603946615
N           -0.75847299514477       -1.41336276283363        0.12504189269870
C           -1.31733456510772       -2.72123419996678        0.18060198387999
H            3.80965399227173        1.26604623867853        1.01591292378222
H            4.08245791786567        1.03287663437963       -0.72030400007951
H            2.77666686149132        2.11944673766601       -0.14756951579027
H            3.71924184553447       -1.55141311707137       -0.01579464641557
H           -1.60141554501603        3.27662371289088        0.22285500068400
H           -2.62518349666218        2.17036387145235       -0.72447580821468
H           -2.68247571098701        2.10933475468388        1.03534087438246
H           -0.82008672405691       -3.39407539615934        0.88305395001281
H           -1.33424381095962       -3.16555124478764       -0.81881819601694
H           -2.35563192312894       -2.60390016835433        0.49091225139776
H            1.59772651311707       -2.94698700776713        0.05227734848486
