25
 energy: 103.764233933340 xtb: 6.6.1 (8d0f1dd)
C            3.32281481596330        1.19297215416913        0.04000392214087
N            2.37188504051991        0.10832094014713        0.04279668751907
C            2.70748523457014       -1.17565730871180        0.02509554496352
N            1.59514472535351       -1.93278932793201        0.06411947304266
C            0.45905383259261       -1.08456656901865        0.10563318865762
C            1.01249024717147        0.23003575440021        0.09187109257594
C            0.25784507612057        1.49507768659790        0.09239698931685
O            0.81986730024261        2.60068475124848        0.02271638915512
N           -1.04001015051833        1.27084908090997        0.16852795940039
C           -2.02770541781084        2.27926304990123        0.17875705740890
C           -3.81130737247085       -1.17928129101303       -1.35964462616050
O           -4.17818278671736       -0.12011100185175       -1.23048628987354
N           -0.77564077008311       -1.38823123390165        0.14379911632343
C           -1.32359232480621       -2.70029476166117        0.18259043074216
H            3.81277214160780        1.26600474612350        1.01247383839913
H            4.07904765379481        1.02769349610988       -0.72697807163530
H            2.78236742321939        2.12320965374856       -0.15118969454490
H            3.71023698208479       -1.55168202239723       -0.01628424757190
H           -1.61189964016339        3.29253981019829        0.22242536328273
H           -2.64483999861981        2.18458824500933       -0.72155393142070
H           -2.68225223310882        2.11335391725726        1.04080680788023
H           -0.80920548088508       -3.37783000864623        0.87648917565791
H           -1.32550830725722       -3.15090044281603       -0.81598281099595
H           -2.36485436216488       -2.59596717490319        0.49314937580219
H            1.57620267633791       -2.93825335422369        0.04550117212867
