  25
        -42.14061810
 C          4.4418529610        0.0456218162        0.4428695493
 N          3.0777269493       -0.3220312585        0.3187709120
 C          2.6968586424       -1.4891582841        0.0293604805
 N          1.3769553361       -1.8224717971       -0.0922345141
 C          0.3277657359       -0.9652666640        0.0795952757
 C          0.3132278854        0.3555460652        0.4416832932
 C         -1.3714048521        2.9096017299       -0.4029929609
 O         -1.0534550026        3.3095589842       -1.4372298762
 N         -1.0087270031        0.7454000470        0.4838579156
 C         -1.5676212028        2.0573006567        0.7299827263
 C         -1.8251505151       -0.3215532921        0.1219914734
 O         -3.0270645746       -0.2902915575        0.0497137243
 N         -0.9707916306       -1.3773551437       -0.1098763284
 C         -1.4342436565       -2.6858806815       -0.4951174334
 H          4.6027658623        0.4438904384        1.4459237612
 H          5.1341126648       -0.7852745652        0.2663651290
 H          4.6490961457        0.8466490042       -0.2686133378
 H          3.3757787539       -2.3297711490       -0.1511248334
 H          1.1313828346        0.9982462221        0.6840132701
 H         -2.6517513659        1.9028464463        0.8848181127
 H         -1.1461266213        2.5111422301        1.6374485734
 H         -1.1578490103       -3.4321989223        0.2514864116
 H         -1.0381899871       -2.9681086522       -1.4719496727
 H         -2.5208679268       -2.6345686896       -0.5559602988
 H          1.1546736191       -2.7785204481       -0.3318739287
