25
 energy: -42.131122708595 gnorm: 0.006724929479 xtb: 6.6.1 (8d0f1dd)
C            3.58156330362578        0.98833685803721        0.67989544086681
N            2.51937587430364        0.10548525580944        0.37843369837011
C            2.57346534639034       -0.82275741034983       -0.46910946333334
N            1.49150364022524       -1.62743333954744       -0.73851105105752
C            0.24867595509260       -1.50684505599381       -0.21160119949599
C           -0.16250463143481       -0.26158053260604        0.54675133780827
C           -0.22553346627780        1.16968582681669       -0.06083944915839
O            0.50847131357543        2.01103995926339       -0.44476987613545
N           -1.64294324090744        1.09957970430593       -0.03697422708106
C           -2.67253613317846        2.02182498367818       -0.42489718776180
C           -1.64918143728270       -0.16732687447790        0.42562147846860
O           -2.51322875838141       -1.10655661726907        0.30926926117455
N           -0.59557911356298       -2.44733582439405       -0.37044125065428
C           -1.90626518343788       -2.44162756596133        0.10197556785400
H            3.74962858443778        0.97015801894316        1.75796521649051
H            4.51395923904965        0.74587193367133        0.15776217459331
H            3.26355216931745        1.99752496837996        0.40969047039131
H            3.46343622725977       -1.08193173473490       -1.05185088630754
H           -2.19349002139994        2.86707482091288       -0.91555082843232
H           -3.37082907774651        1.53779234234216       -1.10805811616832
H           -3.21747450024979        2.37457757820217        0.45167652566288
H           -1.98314409161993       -2.99722701359390        1.04590571588283
H           -2.56567159466936       -2.91020710233136       -0.63648681466904
H            0.30546208394161       -0.24008962551297        1.53157703862697
H            1.63971902702366       -2.45979501199367       -1.29626195803285
