25
 energy: 0.000000000000 xtb: 6.6.1 (8d0f1dd)
C            3.23720163006194        1.16630919979326        0.08434469647475
N            2.29877817382611        0.07527477071623        0.03981603040599
C            2.58028210190900       -1.21425402444508        0.03006176031096
N            1.43813958087363       -1.93419271955128        0.00098261760884
C            0.39035688448383       -1.05887472636071       -0.00790371836672
C            0.93510056364412        0.21347819449412        0.01709077491437
C            0.09450143893243        1.40504303904423       -0.00410947031874
O            0.49712751527797        2.54126714362870       -0.00342325688240
N           -1.25076640035757        1.06271879480407       -0.03085478223738
C           -2.21907211982101        2.15522099834493       -0.05001256985998
C           -1.81739487048744       -0.20012725993278       -0.04692818574614
O           -2.99983886758376       -0.37846417018721       -0.07008878229737
N           -0.92618586207120       -1.30210215599479       -0.03682761578324
C           -1.46982264913417       -2.64643102187190       -0.06029820460571
H            3.71247264356769        1.21471455160235        1.06488849150277
H            4.00791497605742        1.03430808813993       -0.67357694370751
H            2.69910007168542        2.09770118228144       -0.09130154882931
H            3.56654120610678       -1.63682992603973        0.04233140067262
H           -1.67107961066214        3.09322851271934       -0.02552706933167
H           -2.82428953597071        2.09428624779827       -0.95318082946668
H           -2.87644029173232        2.07745725625962        0.81450067533302
H           -1.17061996399332       -3.19584890659852        0.83242232437030
H           -1.14560257411436       -3.17511610292205       -0.95688275822323
H           -2.55549792440841       -2.55659984320617       -0.07459039797972
H            1.38130855184625       -2.94313852034425       -0.01389874181052
25
 energy: -3.127285593176 xtb: 6.6.1 (8d0f1dd)
C            3.22646555967527        1.18000756215508        0.07500851264162
N            2.29831296022519        0.09183688909540        0.03369915783852
C            2.59689078244484       -1.23376554339919        0.03050138342115
N            1.42918368175303       -1.94827314609578        0.00549062060986
C            0.39268890271176       -1.06924741097876       -0.00625355631347
C            0.92112905673231        0.21127063296917        0.01453707870022
C            0.09420049674494        1.38376511621867       -0.00237573167217
O            0.48955312859712        2.54929470210126       -0.00460353599921
N           -1.26615183818908        1.04743680420083       -0.02990346778019
C           -2.18438561363450        2.18953425333398       -0.03494173205440
C           -1.82917870288025       -0.21261665977045       -0.05331575692995
O           -3.02478286362125       -0.40316200018270       -0.07482048245637
N           -0.93734802136738       -1.31687866375141       -0.03573329567640
C           -1.46176547739419       -2.66729176030314       -0.05282123712725
H            3.70790500964027        1.23185664465640        1.05489518466900
H            3.99156870684614        1.04745333395674       -0.69107995336174
H            2.67302129394473        2.10074592560229       -0.10128491927916
H            3.57779793168637       -1.65242733433110        0.04357828479359
H           -1.65065647835841        3.16869413593761        0.03742144227590
H           -2.73906709608352        2.20760684283399       -0.94584011350090
H           -2.93609313017733        2.04551727124001        0.74277482145542
H           -1.15608548506460       -3.21302112081177        0.84262462345256
H           -1.12311022914275       -3.20254991512038       -0.94280124496365
H           -2.54802026254736       -2.59417078683605       -0.07239767401637
H            1.37014235539487       -2.95258717054870       -0.00532451257935
25
 energy: 2.215324490724 xtb: 6.6.1 (8d0f1dd)
C            3.20536956623344        1.19292312895227        0.05673672666118
N            2.29075633089175        0.10364591799510        0.02235914826663
C            2.60849474599074       -1.25400527718265        0.03177987470913
N            1.41655242990839       -1.96134668150080        0.01304446260082
C            0.39225813876719       -1.08484831899976       -0.00197496051403
C            0.90088377150508        0.20367231696031        0.01003765836609
C            0.09248521388987        1.35031146616397       -0.00279276188321
O            0.47097198030825        2.53761704003298       -0.01170553827786
N           -1.29007473212798        1.03301359425899       -0.02482767545163
C           -2.14269450602624        2.23716498144473       -0.01150708880281
C           -1.84287658631878       -0.22596066322079       -0.05404507234535
O           -3.04422051095332       -0.43791389467528       -0.07971125726700
N           -0.95183264681581       -1.33374329547115       -0.03115450654593
C           -1.44678881758599       -2.69599686803025       -0.03985298590020
H            3.69848456047966        1.25706386345776        1.03250863640972
H            3.96400664972423        1.06907381654423       -0.71957984086853
H            2.63277425171904        2.10254080498666       -0.11761077557328
H            3.58514069392518       -1.66406686465785        0.04571955148700
H           -1.61275056990637        3.25399569595359        0.17401152676247
H           -2.58791637047503        2.41059882264996       -0.97311668285291
H           -3.03559810595100        1.99016271850914        0.62653384902206
H           -1.13280001858244       -3.23474284550680        0.86046047756027
H           -1.08613616627993       -3.24145540106574       -0.91891257655221
H           -2.53446779951222       -2.65539586786164       -0.06836772069415
H            1.36219316512850       -2.96327958756504        0.00900142783101
25
 energy: 10.734519430978 xtb: 6.6.1 (8d0f1dd)
C            3.18091434302148        1.20110307967863        0.03844352615616
N            2.27987761431417        0.10362583469813        0.01257737949700
C            2.60960835737488       -1.26849282827140        0.03311310286084
N            1.40865640337883       -1.97263019135593        0.01958509686375
C            0.38838943488988       -1.10209800672613        0.00262776481914
C            0.88452349152156        0.19169960970318        0.00563405975835
C            0.08541411565622        1.32723279620751       -0.00758710284760
O            0.45176936385463        2.52224927899369       -0.02264080505305
N           -1.31449774933056        1.02773114247209       -0.01602236381144
C           -2.11785504060851        2.27431131643112        0.01163867644683
C           -1.85627378019588       -0.23653515085868       -0.04737223962149
O           -3.05610884468734       -0.47108463607039       -0.08009306528696
N           -0.96258309487674       -1.34777376811355       -0.02528318828284
C           -1.43077379770365       -2.72202628755430       -0.02858855242775
H            3.68463863224349        1.27866953012062        1.00889899378923
H            3.93384635630549        1.09096193554833       -0.74648492791326
H            2.59194501692305        2.10259536406017       -0.13170971543752
H            3.58739069480845       -1.66986253763483        0.04754032909202
H           -1.58733709884988        3.30852369851934        0.31309249486501
H           -2.42154685070562        2.60818827190163       -0.99583409348800
H           -3.11411115739772        1.95867953771923        0.50150230621978
H           -1.11054942810493       -3.25188981102458        0.87701780627167
H           -1.04763995015309       -3.27261755841572       -0.89766390023883
H           -2.51933181535507       -2.71618890070954       -0.06759989511359
H            1.36384945161309       -2.97534311714673        0.02224220902981
25
 energy: 15.552185285798 xtb: 6.6.1 (8d0f1dd)
C            3.15812944641905        1.20394491077927        0.02774487395371
N            2.26898405099970        0.09466907439483        0.00797859494325
C            2.60266815970519       -1.27591592203604        0.03471357043670
N            1.40521016313341       -1.98045855952266        0.02313661082742
C            0.38214050203774       -1.11651237871474        0.00580532830249
C            0.87448819326314        0.17887797549209        0.00237645794710
C            0.07692216025367        1.31653009123656       -0.01627604799827
O            0.43735255295628        2.50702639993896       -0.03625337593627
N           -1.33277056979933        1.03205975256399       -0.00518328679734
C           -2.10715118221103        2.29976650954895        0.02585388520727
C           -1.86700281089122       -0.24130971924196       -0.03448485307212
O           -3.06015711496019       -0.49457033631620       -0.07616919386028
N           -0.96916534962475       -1.35625676321294       -0.02077863048251
C           -1.41749941976424       -2.74059818352874       -0.02517380277303
H            3.66868600330197        1.29152293758043        0.99340636925825
H            3.90670031707546        1.10919382673830       -0.76314751077144
H            2.55665433065322        2.09996356369096       -0.13642271379735
H            3.58468143551920       -1.67053498543063        0.04961850599266
H           -1.58868115610147        3.34089436243730        0.39004960420000
H           -2.29136180186346        2.72088344578397       -0.96743991957619
H           -3.13314722948324        1.97438034884652        0.39554888888186
H           -1.09510102326849       -3.26374852783156        0.88431270635766
H           -1.01404778871502       -3.28975497074333       -0.88707361535154
H           -2.50552961450417       -2.76541850270834       -0.07544604587041
H            1.37121241380478       -2.98560574757317        0.03033749612561
25
 energy: 16.465961397802 xtb: 6.6.1 (8d0f1dd)
C            3.14381882413650        1.20178482481767        0.01896782429267
N            2.26187845017884        0.08177914446222        0.00496177759236
C            2.59071577840071       -1.27237862655473        0.03274383197017
N            1.40766571717432       -1.98238196321352        0.02418948059321
C            0.37504484507039       -1.12420881984930        0.00795983576509
C            0.87247077197554        0.16975059246112        0.00191123497594
C            0.06790690736704        1.31836309535316       -0.01760711105914
O            0.42712336848952        2.49832485804214       -0.04906343424295
N           -1.34119286226599        1.03961726879996        0.01275342619925
C           -2.11687763997415        2.30228456199555        0.03362549593736
C           -1.87491275288562       -0.24192961190283       -0.02186892579654
O           -3.05942734644280       -0.50595687993101       -0.06617006550070
N           -0.97042600840277       -1.35842534651768       -0.01601850681784
C           -1.41214986328777       -2.74684470984031       -0.02250404369664
H            3.65762262093334        1.29219001065862        0.98073124627818
H            3.88764596507879        1.11636364787114       -0.77574396205857
H            2.53674186101706        2.09501160289657       -0.13947069320778
H            3.57805505195878       -1.66353318510151        0.04559577127834
H           -1.62210406766707        3.33857681633835        0.46058613708217
H           -2.15325403398031        2.76898214496791       -0.93076850858738
H           -3.14291183741100        1.99187346402818        0.28066282124222
H           -1.09150188320838       -3.26466098283984        0.88986791869102
H           -0.99683826367216       -3.28830512036992       -0.88147936178327
H           -2.49662537784147       -2.78735052469032       -0.08075508227614
H            1.38374644319488       -2.98989765970982        0.03392678927624
25
 energy: 18.445762779711 xtb: 6.6.1 (8d0f1dd)
C            3.13948011730900        1.20003581648945        0.00593918213848
N            2.25915180551886        0.07661552653602       -0.00180067418827
C            2.58296462336214       -1.26302042341356        0.02471242839676
N            1.41138842128252       -1.98051087855900        0.02247505406066
C            0.37035285418087       -1.12536978750059        0.01204416627143
C            0.87236996177063        0.16770546664350        0.00504979061336
C            0.06037006722017        1.31994500210844       -0.00341396935834
O            0.41741565012793        2.49777151121356       -0.05581561627529
N           -1.34233220700011        1.03688364214082        0.04887490548691
C           -2.12766076054774        2.29125195471944        0.04129948162393
C           -1.88116264175026       -0.24479420780884       -0.00141073641015
O           -3.06186557753470       -0.51147214558206       -0.04737503182235
N           -0.96994431409107       -1.35935471557551       -0.00605389926219
C           -1.41395368940166       -2.74658841003926       -0.01542626874458
H            3.65681893364313        1.28722323951459        0.96483651149602
H            3.87763782350520        1.11413563939949       -0.79266257808920
H            2.53142002887691        2.09184979718829       -0.14863082447298
H            3.57263305087273       -1.65333846224013        0.03148921911594
H           -1.67110355140578        3.31924242516996        0.56370565104386
H           -1.96786580239764        2.81843652552036       -0.92948403022555
H           -3.21196527619279        1.97107734804725        0.12935418857255
H           -1.09421179474987       -3.26196959345280        0.89770871097428
H           -0.99561667139820       -3.28047805515690       -0.87513772864091
H           -2.49562174608180       -2.78797493939548       -0.07547013959265
H            1.39351536281779       -2.98827367379523        0.03222610343552
25
 energy: 15.702613292782 xtb: 6.6.1 (8d0f1dd)
C            3.14379399248869        1.19883848712993        0.00697430014059
N            2.25935284482366        0.07755611947909       -0.00188131213062
C            2.57881160066078       -1.25168203042503        0.02138791876072
N            1.41355810615096       -1.97515533578804        0.01999768898049
C            0.36806107482045       -1.11909313147846        0.01354277901317
C            0.87414820691909        0.17231942664502        0.00806743062941
C            0.05678730454216        1.32301276752496        0.00430411514574
O            0.41486006819283        2.50094887771711       -0.05689642332394
N           -1.33510441853226        1.03090599847786        0.06751416350812
C           -2.13201453383382        2.27928860573688        0.02914243407785
C           -1.88229057636660       -0.24541076558431        0.01058312728408
O           -3.06327511425174       -0.50349200671928       -0.03796615989323
N           -0.96831762542860       -1.35729837002473       -0.00203204192650
C           -1.41980976885393       -2.74139492899326       -0.01760190400052
H            3.66027994255870        1.28022487799120        0.96657147985765
H            3.88175710534464        1.10789012381822       -0.79062973109074
H            2.53963566809290        2.09226410314737       -0.14725579181774
H            3.56794997406978       -1.64587001810826        0.02474064068982
H           -1.71370800150399        3.29278366637280        0.55749517716223
H           -1.93242150060471        2.77986506436035       -0.89274349327498
H           -3.18521588662836        1.97962776955362        0.08139431924026
H           -1.10188176060369       -3.26013435078681        0.89335286193812
H           -1.00452452844560       -3.27154270058987       -0.88023289518850
H           -2.50198612480547       -2.77326315232716       -0.07683758733473
H            1.39376861913039       -2.98216049495741        0.02604279970049
25
 energy: 15.157616223683 xtb: 6.6.1 (8d0f1dd)
C            3.14574245836180        1.20119602192549        0.00443812238183
N            2.25871804496049        0.08279139665875       -0.00457712620401
C            2.58043032305587       -1.24911205978313        0.01764646353577
N            1.41288607836901       -1.97404944613092        0.01845146189733
C            0.36832721421051       -1.11650731358815        0.01572652725166
C            0.87190672282833        0.17576388750419        0.01015803705933
C            0.05196252401436        1.32091617224556        0.01149721680305
O            0.40885730476587        2.50264602516071       -0.05415342887838
N           -1.33685382029482        1.02383056419430        0.08671686801852
C           -2.13281377377232        2.27679559215968        0.02364227219900
C           -1.88408018679584       -0.24866167756477        0.01946568098875
O           -3.06722677150981       -0.50439245482907       -0.02911212249211
N           -0.96890315337159       -1.35877707934018        0.00294198442476
C           -1.42192157575047       -2.74190017449326       -0.01551010900576
H            3.66368156070060        1.28046311282754        0.96416991702288
H            3.88395622205995        1.10662030356796       -0.79322500766481
H            2.54331865010289        2.09577341660273       -0.14996748329816
H            3.56812962090569       -1.64556848538480        0.01712030612324
H           -1.75120730185068        3.28191908578198        0.57881238663046
H           -1.86880922816422        2.79056856071503       -0.88480519898662
H           -3.18374436972528        1.97322751567267        0.02601663203959
H           -1.10427984601259       -3.26475217923300        0.89337559878704
H           -1.01051823398309       -3.27246532151176       -0.88038129927032
H           -2.50565119661809       -2.76704731685614       -0.07305187999521
H            1.39030740144962       -2.98024954412963        0.02163807677940
25
 energy: 14.546125619901 xtb: 6.6.1 (8d0f1dd)
C            3.15006816420587        1.20370533855503        0.00225545282214
N            2.25927050070299        0.09003729735357       -0.00779760406667
C            2.58573368382862       -1.25113981756069        0.01310563467754
N            1.41077635668513       -1.97398786015638        0.01622809260533
C            0.37125489822587       -1.11305082850488        0.01721992492632
C            0.87040602160055        0.18002102819977        0.01244337071396
C            0.04993912728190        1.31950251428851        0.02067982097571
O            0.40814651746692        2.50454701468492       -0.04151449364193
N           -1.33813347878934        1.01962810944665        0.10731990526623
C           -2.13069961099244        2.28005881320491        0.01525814812175
C           -1.88187752795932       -0.24940734290050        0.02433105543882
O           -3.06871385460611       -0.50133863726415       -0.02294385514118
N           -0.96898218913413       -1.35912438396239        0.00735416197289
C           -1.42386240006340       -2.74087101982238       -0.01249967058750
H            3.66879662829774        1.28239586253082        0.96271160829525
H            3.88995360413788        1.10510665184565       -0.79469884957111
H            2.55037455055705        2.10045054478849       -0.15372764577128
H            3.57059462603277       -1.65091187759950        0.00795559164662
H           -1.80089158553202        3.27403432035578        0.59318504178455
H           -1.81673783325664        2.78784793999849       -0.87134140833245
H           -3.18837464518226        1.96186944105852       -0.03162413128689
H           -1.10533687876738       -3.26979724533618        0.89316260608939
H           -1.02109506175395       -3.27458632524016       -0.88087791668016
H           -2.51012380519956       -2.75658049398055       -0.06491715468693
H            1.38172886014948       -2.97938044181159        0.01576621057684
25
 energy: 13.479036441433 xtb: 6.6.1 (8d0f1dd)
C            3.15103194901530        1.20414180546773        0.00225584011368
N            2.25904943236146        0.09177002567209       -0.00819392397627
C            2.58729582607263       -1.25239991725791        0.01234977525656
N            1.41029069688550       -1.97383887422038        0.01560772756968
C            0.37219620625872       -1.11265167498932        0.01691929193843
C            0.86998306799376        0.18047659478443        0.01281565502759
C            0.04825209277841        1.31999164036070        0.02295545159423
O            0.40706817508604        2.50505997383452       -0.03435688101598
N           -1.34076420227467        1.01932669065196        0.10820282865741
C           -2.13467786344278        2.27903455448482        0.01203301174299
C           -1.88109637757510       -0.25050793054591        0.02232721306601
O           -3.06863129595734       -0.50192210378114       -0.02608131154010
N           -0.96887327985662       -1.35942670092099        0.00748182576251
C           -1.42405947400829       -2.74045699574921       -0.01136115326217
H            3.66893564972955        1.28361664366858        0.96314491116713
H            3.89182850927061        1.10455651652159       -0.79387168433583
H            2.55290858428321        2.10173499535439       -0.15505268787204
H            3.57170704882504       -1.65212275726459        0.00643940651280
H           -1.81204419077049        3.26388778284981        0.59169980747094
H           -1.81190119641984        2.79252576565192       -0.87604236253356
H           -3.17678979017327        1.96418590964331       -0.02893524383734
H           -1.10382647345403       -3.26963201478770        0.89358305025944
H           -1.02466075935731       -3.27485652997486       -0.88106170585598
H           -2.51061520674130       -2.75420195762092       -0.06061520517436
H            1.37960753940707       -2.97926283966112        0.01479025941145
25
 energy: 13.383807809319 xtb: 6.6.1 (8d0f1dd)
C            3.15070369032932        1.20318053133989        0.00178986062791
N            2.25898872117281        0.09033256720556       -0.00819853834403
C            2.58661294405713       -1.25278319716214        0.01217479691307
N            1.41046651436624       -1.97380495262466        0.01532402678484
C            0.37196843028650       -1.11315803275527        0.01702223283541
C            0.87068828987026        0.17951630650170        0.01317903057255
C            0.04936688582761        1.32089197011334        0.02395472872981
O            0.40846309768465        2.50472277316670       -0.03296837266179
N           -1.34014907131603        1.02132503943726        0.10704827478492
C           -2.13419317862790        2.27975853768853        0.01186682808715
C           -1.88043885457084       -0.24970261590782        0.02240702234344
O           -3.06734881937968       -0.50119268414009       -0.02796154896316
N           -0.96875047300962       -1.35875621533248        0.00767294304835
C           -1.42387667506287       -2.73979003771643       -0.01102421359887
H            3.66839078245152        1.28315175989927        0.96249958000179
H            3.89113332762009        1.10420657205308       -0.79449967392702
H            2.55257526911084        2.10075579782443       -0.15538725154105
H            3.57150403543973       -1.65162990318421        0.00632397403945
H           -1.81080138211373        3.26319404965983        0.59426551841613
H           -1.81403977956488        2.79132441866530       -0.87592153494067
H           -3.18252969634280        1.96383322734582       -0.03092311346574
H           -1.10270923873549       -3.26803784084219        0.89394778498766
H           -1.02426903660891       -3.27349369098355       -0.88081876387440
H           -2.51004240842009       -2.75533500310503       -0.05971049815982
H            1.38050129347235       -2.97948077497508        0.01497080345131
25
 energy: 13.089300059619 xtb: 6.6.1 (8d0f1dd)
C            3.15036109531067        1.20262075625911        0.00156519422322
N            2.25868432474323        0.08968906965443       -0.00815982775872
C            2.58628474511959       -1.25336892169023        0.01208591384085
N            1.41032897604652       -1.97376364954352        0.01511330458683
C            0.37174936347861       -1.11355516602218        0.01726005104051
C            0.87089588847037        0.17883252573666        0.01353140507990
C            0.05017770378193        1.32132478833894        0.02438158685560
O            0.40936282202911        2.50442416844437       -0.03138841090866
N           -1.34018998940115        1.02262188305984        0.10461288232712
C           -2.13327133468056        2.28070989085085        0.01080298155481
C           -1.87997823032104       -0.24949118416872        0.02142455372686
O           -3.06666957552706       -0.50073478615447       -0.03041148524427
N           -0.96898601363706       -1.35824345187233        0.00798230731953
C           -1.42364360226894       -2.73943426503910       -0.01044689157390
H            3.66781798141130        1.28312909610395        0.96222975120714
H            3.89065639700579        1.10386840053096       -0.79474142900329
H            2.55231664102670        2.10029838262419       -0.15572119766970
H            3.57161774047889       -1.65107532649065        0.00638145842608
H           -1.81067454831993        3.25962539889482        0.59648689106898
H           -1.81727186153443        2.79337626239724       -0.87618662461258
H           -3.18337763756389        1.96414983634377       -0.03044885134061
H           -1.10118391988149       -3.26704093692408        0.89434388512976
H           -1.02405322661798       -3.27266084153976       -0.88055997608575
H           -2.50965299620117       -2.75663279292587       -0.05843891353745
H            1.38091392498825       -2.97964053469647        0.01533533749499
25
 energy: 12.499532981864 xtb: 6.6.1 (8d0f1dd)
C            3.15006220973868        1.20216089098042        0.00119183268312
N            2.25835530153206        0.08924528371099       -0.00827465623223
C            2.58582827232356       -1.25384960491269        0.01187541916100
N            1.41004354837488       -1.97365900260079        0.01491325954478
C            0.37136134432566       -1.11380355248609        0.01772661305415
C            0.87096270013830        0.17841109212795        0.01384959204994
C            0.05104132623868        1.32162901208741        0.02407580344573
O            0.40992964344485        2.50434540999440       -0.03060012988353
N           -1.34033675636171        1.02364003735534        0.10114648262429
C           -2.13222170614788        2.28124128233703        0.00945001240011
C           -1.87977498527761       -0.24953279142301        0.01999377302701
O           -3.06643551887760       -0.50017716492250       -0.03255168623994
N           -0.96951437093694       -1.35752940066047        0.00864446369033
C           -1.42344746989376       -2.73909035614599       -0.00961135617438
H            3.66745068009342        1.28309318831200        0.96180341401965
H            3.89017565236106        1.10340742777195       -0.79518173188296
H            2.55204223641537        2.09992870016958       -0.15617342653838
H            3.57172411192534       -1.65013057289138        0.00664775426754
H           -1.81345082519783        3.25199961914642        0.60241335197703
H           -1.81699273422099        2.79844732080243       -0.87659517578078
H           -3.18322654588349        1.96494245113509       -0.03163303476571
H           -1.09969961533933       -3.26621313877060        0.89490171990984
H           -1.02377665440501       -3.27184113904143       -0.88006426683900
H           -2.50929017272411       -2.75794259512687       -0.05712040990001
H            1.38140499629067       -2.97969379477746        0.01620627852967
25
 energy: 12.521757821802 xtb: 6.6.1 (8d0f1dd)
C            3.15020005396136        1.20248506040128        0.00148403413291
N            2.25865319476001        0.08946861432081       -0.00821700079896
C            2.58590372151872       -1.25364501505580        0.01210638467310
N            1.41003567300272       -1.97374201954656        0.01517669827279
C            0.37140680757010       -1.11362568216212        0.01762763026253
C            0.87089114309834        0.17879832458444        0.01348899577534
C            0.05102783112400        1.32127989141621        0.02273594337261
O            0.40963005102991        2.50454388506503       -0.03258835295155
N           -1.34011792479463        1.02296321285712        0.10029781788776
C           -2.13184467821599        2.28096188715349        0.00983909889441
C           -1.88010353273738       -0.24963786244928        0.01997073308287
O           -3.06694698440935       -0.50025744900306       -0.03132741229427
N           -0.96954558334947       -1.35763149279999        0.00838826984539
C           -1.42349832579771       -2.73928354532045       -0.01006994439805
H            3.66774676595306        1.28313172611344        0.96212504514501
H            3.89039199348255        1.10378144385432       -0.79490603042150
H            2.55190919651315        2.10007590654228       -0.15573658028055
H            3.57166496359312       -1.65032238308276        0.00748673925931
H           -1.81238635253760        3.25195568342862        0.60160837642934
H           -1.81889379240328        2.79861303793435       -0.87594110657483
H           -3.18196503859804        1.96524781047596       -0.02941246866864
H           -1.10059609669033       -3.26663802278372        0.89465804232585
H           -1.02333125556508       -3.27228678197552       -0.88014930030816
H           -2.50939021661455       -2.75754854199262       -0.05835010050059
H            1.38137305404261       -2.97965908580374        0.01673838398511
