25
 energy: -42.436798486573 xtb: 6.6.1 (8d0f1dd)
C            3.13839734284910        1.19784830909442        0.00484458835113
N            2.24857446640529        0.07570817046042       -0.00744198912707
C            2.58505641376229       -1.24317235173678        0.00644870216847
N            1.44137038469289       -1.98647667637451        0.01661947523758
C            0.37734321790218       -1.14560325526086        0.01583938103348
C            0.85889656631852        0.16042940693054        0.00932607040743
C            0.02200193167841        1.29001353525513        0.00758814292430
O            0.38259580571999        2.46819723864402       -0.04924293265180
N           -1.36481703182431        0.93946906228313        0.03189152998847
C           -2.17757027095499        2.01343205192154       -0.16884115075837
C           -1.87082789499336       -0.35844553135507        0.00945265078490
O           -3.06248338757315       -0.58789936517585       -0.04248979142945
N           -0.94973960674714       -1.41838287001736        0.01000882511744
C           -1.41261280011391       -2.78566485319168       -0.01291220131918
H            3.65508208218449        1.27763961482654        0.96409796815643
H            3.87987264481491        1.10149711118237       -0.78849030962426
H            2.53992518954097        2.09574781869105       -0.15386683805994
H            3.58104556667556       -1.63180838210926        0.02832963126739
H           -1.77658179151963        4.39392894782615        0.39678325423828
H           -1.61208620274597        2.87095297982091       -0.50915374302022
H           -3.23053287043234        1.90390740712263       -0.08503328550383
H           -1.09778447528789       -3.29902688620479        0.89730575454603
H           -1.01410838643584       -3.30905731345390       -0.88388520938849
H           -2.49790460949685       -2.79821237746879       -0.07028327462732
H            1.40204299317591       -2.99402385569553        0.02158459195715
