25
 energy: 0.000000000000 xtb: 6.6.1 (8d0f1dd)
C            3.23720163006194        1.16630919979326        0.08434469647475
N            2.29877817382611        0.07527477071623        0.03981603040599
C            2.58028210190900       -1.21425402444508        0.03006176031096
N            1.43813958087363       -1.93419271955128        0.00098261760884
C            0.39035688448383       -1.05887472636071       -0.00790371836672
C            0.93510056364412        0.21347819449412        0.01709077491437
C            0.09450143893243        1.40504303904423       -0.00410947031874
O            0.49712751527797        2.54126714362870       -0.00342325688240
N           -1.25076640035757        1.06271879480407       -0.03085478223738
C           -2.21907211982101        2.15522099834493       -0.05001256985998
C           -1.81739487048744       -0.20012725993278       -0.04692818574614
O           -2.99983886758376       -0.37846417018721       -0.07008878229737
N           -0.92618586207120       -1.30210215599479       -0.03682761578324
C           -1.46982264913417       -2.64643102187190       -0.06029820460571
H            3.71247264356769        1.21471455160235        1.06488849150277
H            4.00791497605742        1.03430808813993       -0.67357694370751
H            2.69910007168542        2.09770118228144       -0.09130154882931
H            3.56654120610678       -1.63682992603973        0.04233140067262
H           -1.67107961066214        3.09322851271934       -0.02552706933167
H           -2.82428953597071        2.09428624779827       -0.95318082946668
H           -2.87644029173232        2.07745725625962        0.81450067533302
H           -1.17061996399332       -3.19584890659852        0.83242232437030
H           -1.14560257411436       -3.17511610292205       -0.95688275822323
H           -2.55549792440841       -2.55659984320617       -0.07459039797972
H            1.38130855184625       -2.94313852034425       -0.01389874181052
25
 energy: -2.020929267557 xtb: 6.6.1 (8d0f1dd)
C            3.26997405821149        1.16023665064987        0.09426722444992
N            2.32240331600894        0.08878978321422        0.04291227942707
C            2.60768469952374       -1.23992908236680        0.03001941691984
N            1.43341977856793       -1.94187138526042       -0.00135944660567
C            0.40639312467419       -1.05223356501196       -0.00681312979300
C            0.94362924309238        0.22478653261596        0.01963838342797
C            0.11394943053447        1.40241229804771       -0.00282371821167
O            0.52047656922187        2.56457224656276        0.01001738041657
N           -1.25603462770066        1.06496315372445       -0.04932660546529
C           -2.24638158937484        2.14818130503672       -0.07753058511938
C           -1.81238464472935       -0.18912909538768       -0.04970349114366
O           -3.00827098732334       -0.37194015274672       -0.07292098797879
N           -0.92447714646769       -1.29102284801830       -0.03518986654476
C           -1.46516171296884       -2.63177206442022       -0.05919618450839
H            3.74206098345900        1.20400118489980        1.07926990785927
H            4.04304318079292        1.01372532756647       -0.66181660437697
H            2.73577965613176        2.09001232822133       -0.08883237206976
H            3.58390347310254       -1.67056388517550        0.03778879141978
H           -1.68608572028142        3.08730533155569       -0.05440812844715
H           -3.02787933242384        2.08770011652121       -0.88063391630652
H           -2.89656946937475        2.07153936150960        0.77110628803681
H           -1.16342397567571       -3.18390772281404        0.83282846132884
H           -1.13726253195544       -3.16212038343227       -0.95537939555966
H           -2.55019129626317       -2.53921994700731       -0.07432720359413
H            1.36362018915404       -2.94548688631252       -0.02055260141396
25
 energy: 8.599474006528 xtb: 6.6.1 (8d0f1dd)
C            3.31881482715150        1.13945360642893        0.10923158319505
N            2.34729084640479        0.09660765490229        0.04726151268175
C            2.62933872091936       -1.26373810258849        0.02971483456473
N            1.42649747646108       -1.94096002010417       -0.00560302930702
C            0.42372767883000       -1.03954145345129       -0.00711791992365
C            0.95317725406229        0.24186979138528        0.02304798899872
C            0.13299794678630        1.40323835449327       -0.00383336819592
O            0.53663019730582        2.57784878107070        0.03631936630008
N           -1.27031622641862        1.07869694370407       -0.09003535248334
C           -2.29497448777298        2.14190448271692       -0.11050623292139
C           -1.80077049569312       -0.17129413749519       -0.06355230294515
O           -3.00168422817093       -0.36493764705045       -0.07656254109703
N           -0.91901687597554       -1.27037521677776       -0.03427483650116
C           -1.45511838096667       -2.60857228476275       -0.05663382122365
H            3.78682527029356        1.18087637756209        1.09890562718412
H            4.10029676737174        0.97434535470502       -0.63797806984118
H            2.80490868910958        2.07736544913253       -0.08511082026855
H            3.59557923945110       -1.70541140637540        0.02898311247382
H           -1.72850503739274        3.08171993753352       -0.12139842322180
H           -3.28638384556260        2.05654444375732       -0.78128433156986
H           -2.91572586354248        2.06365792640405        0.74957027392696
H           -1.15247436159896       -3.16337324850286        0.83491683791824
H           -1.12482504702549       -3.14122652406488       -0.95221962193366
H           -2.53962403268161       -2.51369032861879       -0.07299951621432
H            1.34554863659086       -2.94198013183189       -0.03180705344846
25
 energy: 15.787496895548 xtb: 6.6.1 (8d0f1dd)
C            3.36092451179004        1.11512827729859        0.12108174206638
N            2.36141341654509        0.09696370302156        0.04896104112665
C            2.63443181945135       -1.27212707949612        0.02740660659831
N            1.42431323902638       -1.93478982542272       -0.01213586451987
C            0.43247459558450       -1.02722976006723       -0.00974812850871
C            0.96016030849563        0.25659710885023        0.02501572758899
C            0.13634334705591        1.41568429286616       -0.00226542205941
O            0.53539324258465        2.58947550253772        0.05681618153779
N           -1.28717029557688        1.09523838750495       -0.11914359356522
C           -2.35003136771744        2.13538401924538       -0.13081461926090
C           -1.79589125693092       -0.16025404604958       -0.07199226483237
O           -2.99615031634399       -0.36680396231974       -0.07548457808063
N           -0.91171447591737       -1.25300532367060       -0.03403267511819
C           -1.44469283813059       -2.59055061960344       -0.05372822324336
H            3.82329998761689        1.14978482675947        1.11487184952276
H            4.15097772943091        0.92788107625639       -0.61424903699083
H            2.87891790567870        2.06853975591874       -0.08348849728973
H            3.59706568863022       -1.72363415847526        0.01672890394182
H           -1.79807351338950        3.08230090746500       -0.18228993155162
H           -3.42841081406024        2.02103171937733       -0.73122572759225
H           -2.92540237488978        2.05922530323299        0.76141223942870
H           -1.14024657374844       -3.14310984143430        0.83848849937219
H           -1.11430723687128       -3.12273705214334       -0.94956625957230
H           -2.52913322670604       -2.49388051554424       -0.06883799521763
H            1.33772316632847       -2.93608409393587       -0.04474607763325
25
 energy: 17.023432958648 xtb: 6.6.1 (8d0f1dd)
C            3.38234709112697        1.09964818217900        0.12694758579889
N            2.36543540050992        0.09676736347551        0.04769284773633
C            2.63182525819119       -1.26954014187969        0.02536301456307
N            1.42493489361156       -1.92840339523037       -0.01756611631631
C            0.43422794121254       -1.01972348156096       -0.01305910862835
C            0.96238128653262        0.26482240650026        0.02541696275774
C            0.13397975743628        1.42563157757134        0.00149253760133
O            0.52866313591529        2.59436891681092        0.07006057052399
N           -1.29842662559903        1.10306394278507       -0.13126052939603
C           -2.38102439833628        2.13203986321102       -0.13904974044064
C           -1.79664470925176       -0.15763614432145       -0.07401997746691
O           -2.99460434944848       -0.37286687505469       -0.07029216278956
N           -0.90756657033152       -1.24463876148415       -0.03428690548272
C           -1.43802073664953       -2.58343826092085       -0.05154104313418
H            3.83826646328081        1.12850543535054        1.12414795560079
H            4.17643224090792        0.89521949441084       -0.59986849401766
H            2.92459663494639        2.06354865135634       -0.08484514568713
H            3.59412224292409       -1.72495454578244        0.00601802882127
H           -1.84452304990994        3.08396545089626       -0.21218925284298
H           -3.46964387223565        2.00310573994659       -0.71501201262283
H           -2.92964740098623        2.06483145290647        0.76744689771687
H           -1.13105463400441       -3.13290398959037        0.84119254365664
H           -1.10837298900557       -3.11453845092253       -0.94776923634756
H           -2.52267928226073       -2.48755294316223       -0.06450676561695
H            1.33721093935981       -2.93029288531829       -0.05347855783973
25
 energy: 15.698656124063 xtb: 6.6.1 (8d0f1dd)
C            3.38851590955489        1.09335858932623        0.12951755330526
N            2.36480670413715        0.09751159456293        0.04560699981890
C            2.62798287648399       -1.26407554488142        0.02566192193710
N            1.42560600271376       -1.92417707335997       -0.02061737248639
C            0.43275765889843       -1.01645760193764       -0.01641132975670
C            0.96163797911148        0.26824341005833        0.02398647739472
C            0.13173774484526        1.43035807166985        0.00254872975363
O            0.52250132554430        2.59582895625113        0.07937541303616
N           -1.30420717843313        1.10395005210356       -0.13658562643428
C           -2.39184375631050        2.13050086681808       -0.14158692028012
C           -1.79965978000578       -0.15848378571106       -0.07442688939899
O           -2.99581194091325       -0.37745257971645       -0.06580041904787
N           -0.90700949010770       -1.24224644069087       -0.03562574808534
C           -1.43526157698787       -2.58282356702490       -0.05086499819924
H            3.83877195028272        1.12031375272478        1.12917893033186
H            4.18386187376026        0.87954375985580       -0.59220319054976
H            2.94335875202064        2.06100308406413       -0.08687045295698
H            3.59095098898683       -1.71975599072381       -0.00046680528569
H           -1.86150030314843        3.08293058396522       -0.22906602337555
H           -3.46749577098938        1.99424099775419       -0.70853521591079
H           -2.92361048020951        2.07539057889022        0.77461084132802
H           -1.12612266778406       -3.13004026842902        0.84215321173776
H           -1.10580150615057       -3.11330545891517       -0.94713904738319
H           -2.52014805497037       -2.48896251392770       -0.06234959192635
H            1.33819740760707       -2.92636487055426       -0.05705655141884
25
 energy: 14.237425674047 xtb: 6.6.1 (8d0f1dd)
C            3.38836352768408        1.09208721656903        0.13102316989775
N            2.36314798935119        0.09889335270700        0.04345046632919
C            2.62522063215906       -1.25983832509803        0.02808311726203
N            1.42562294942452       -1.92208673866101       -0.02209392271270
C            0.43081176395710       -1.01553586404496       -0.01940058772108
C            0.95980791663414        0.26952483990626        0.02212749521876
C            0.13086782516433        1.43170203232964        0.00251198848174
O            0.51750361776685        2.59648605101929        0.08690750243745
N           -1.30715945368167        1.10177847345137       -0.14029505074812
C           -2.39322880310381        2.12973682050237       -0.14340835555973
C           -1.80264236887628       -0.16008702734702       -0.07453595372125
O           -2.99781520365519       -0.38047343205940       -0.06264017080761
N           -0.90809113944132       -1.24249698264172       -0.03747947667994
C           -1.43452914552328       -2.58439862690445       -0.05143122792556
H            3.83409455588116        1.11934367441978        1.13255417418746
H            4.18482387272016        0.87371117467644       -0.58702606678817
H            2.94895589771861        2.06054842070726       -0.08855333225533
H            3.58881549596245       -1.71466106152693       -0.00512234697207
H           -1.86371529966849        3.08089449300610       -0.24456479832926
H           -3.45837789381953        1.98655335688337       -0.69969030121418
H           -2.91040191816004        2.08887557042655        0.78247482478918
H           -1.12396826244282       -3.13034961511243        0.84174634059603
H           -1.10475729446983       -3.11458898942221       -0.94762067733439
H           -2.51954235414173       -2.49226660537411       -0.06220491853496
H            1.33840776049659       -2.92432360624004       -0.05777799574788
25
 energy: 13.565672092696 xtb: 6.6.1 (8d0f1dd)
C            3.38601198674283        1.09344980634936        0.13184774396191
N            2.36203093713805        0.09990203951361        0.04192924130684
C            2.62443068024356       -1.25858347604658        0.03178932774667
N            1.42535601643159       -1.92197386311229       -0.02223126819455
C            0.42982004698389       -1.01608619051756       -0.02103795108078
C            0.95833974431917        0.26943830715248        0.02104816465899
C            0.13119716680208        1.43088905701416        0.00274496268364
O            0.51452291535739        2.59653840772073        0.09065556739877
N           -1.30798022396375        1.09917793750408       -0.14212350968969
C           -2.39055043827438        2.12952979728838       -0.14528129112674
C           -1.80413778833603       -0.16130905447046       -0.07440406354320
O           -2.99915786096834       -0.38204428671729       -0.06101414646215
N           -0.90914459458733       -1.24381479346254       -0.03891622849822
C           -1.43481238675565       -2.58605530248991       -0.05265279204315
H            3.82943279565046        1.12182301298258        1.13435709482888
H            4.18371282434387        0.87464281648526       -0.58426945079930
H            2.94703113869423        2.06145243526135       -0.08915714181566
H            3.58822943137794       -1.71254035297312       -0.00863844401437
H           -1.85983818531478        3.07902832757193       -0.25635718736277
H           -3.45416662636718        1.98092731751256       -0.68955808877217
H           -2.89752306676742        2.10131060972690        0.78699387692587
H           -1.12403747380608       -3.13190127336785        0.84054893625765
H           -1.10465502941845       -3.11615298924222       -0.94879470849140
H           -2.51984495611550       -2.49448510504726       -0.06348103569216
H            1.33794761452608       -2.92413458246417       -0.05696371203559
25
 energy: 13.432076497471 xtb: 6.6.1 (8d0f1dd)
C            3.38359502305510        1.09543677876813        0.13233820529976
N            2.36168657178717        0.10008017432046        0.04124794105217
C            2.62492818193389       -1.25941729672543        0.03639098821925
N            1.42521509401849       -1.92282747466913       -0.02157942434550
C            0.42975483556940       -1.01715615352933       -0.02143076057448
C            0.95773067371719        0.26866583962899        0.02082310545882
C            0.13186059722535        1.42947155657535        0.00323703889351
O            0.51322623019537        2.59623493134440        0.09077171475858
N           -1.30769559830865        1.09743574719341       -0.14196928750735
C           -2.38765619690269        2.12951435602700       -0.14685194196093
C           -1.80435827692342       -0.16194874913507       -0.07403867835441
O           -2.99960089407691       -0.38274517837057       -0.06046585022884
N           -0.90952309373474       -1.24518926957063       -0.03975784839590
C           -1.43537132035224       -2.58708206315865       -0.05402706677480
H            3.82664121558428        1.12476036206186        1.13502292149040
H            4.18222259668384        0.87868220851733       -0.58347243901396
H            2.94211642576770        2.06254947269630       -0.08857703219513
H            3.58859322833491       -1.71277444881428       -0.01202209224630
H           -1.85565217791493        3.07761001973735       -0.26437318483828
H           -3.45417565395138        1.97739694840907       -0.68115887475780
H           -2.88815241897516        2.11107027693668        0.78903013062726
H           -1.12525692398612       -3.13354273824030        0.83911512373000
H           -1.10497558471770       -3.11714542145188       -0.95019023362583
H           -2.52037749038607       -2.49514211897887       -0.06533151871562
H            1.33743962429361       -2.92490915740004       -0.05569703984730
25
 energy: 13.486288240676 xtb: 6.6.1 (8d0f1dd)
C            3.38255900590461        1.09646453888838        0.13258631668236
N            2.36188096365573        0.09964990847856        0.04144402618365
C            2.62564450055371       -1.26067872984615        0.04044759794265
N            1.42526547282646       -1.92352757170928       -0.02086495034278
C            0.43010399592879       -1.01779320733172       -0.02114255416975
C            0.95792147259707        0.26801512683439        0.02111540090847
C            0.13210641873795        1.42870594667142        0.00355775758335
O            0.51325573188506        2.59596756792133        0.08913146787120
N           -1.30723710356226        1.09710189869154       -0.14054243563314
C           -2.38681274834662        2.12948905972609       -0.14741763605411
C           -1.80398172955665       -0.16204360323632       -0.07377107261566
O           -2.99939094582502       -0.38291547391765       -0.06069321291858
N           -0.90928439910627       -1.24581045149148       -0.04003392394635
C           -1.43565997056216       -2.58726803704133       -0.05484417505442
H            3.82641864877678        1.12589845360960        1.13491765481630
H            4.18133172906342        0.88181477333314       -0.58400485979434
H            2.93866004845823        2.06300844583118       -0.08744273983519
H            3.58904353268020       -1.71375307215986       -0.01519276705711
H           -1.85443481537585        3.07701387981054       -0.26771347423857
H           -3.45528605491013        1.97601037185476       -0.67771082661188
H           -2.88502643783441        2.11563214856658        0.78943014161160
H           -1.12625288161244       -3.13429925814228        0.83824997269172
H           -1.10522962849005       -3.11732217417016       -0.95103839680474
H           -2.52064254133960       -2.49474547686961       -0.06653794887048
H            1.33726240338974       -2.92558646212952       -0.05489546619687
25
 energy: 13.555816790821 xtb: 6.6.1 (8d0f1dd)
C            3.38169304123510        1.09744400328117        0.13312416775624
N            2.36236527700914        0.09866167804257        0.04260616140729
C            2.62672338286709       -1.26275229022452        0.04973733998802
N            1.42538908055872       -1.92438729779687       -0.01956980155386
C            0.43075802224956       -1.01841917422391       -0.02066431480132
C            0.95865111350199        0.26712103781727        0.02176957578356
C            0.13198860449988        1.42790159111722        0.00375435770869
O            0.51397608942951        2.59552867455250        0.08567439718305
N           -1.30656971936564        1.09730174955619       -0.13717923858240
C           -2.38692229315445        2.12941752028785       -0.14778338060697
C           -1.80324099648807       -0.16202367253414       -0.07356829916704
O           -2.99879296591291       -0.38312089115903       -0.06178099071771
N           -0.90857975005233       -1.24635222642799       -0.04054897122296
C           -1.43585558954893       -2.58719025154999       -0.05601663004234
H            3.82763796670735        1.12631083502949        1.13450765698352
H            4.18005221902814        0.88599511180151       -0.58551298404578
H            2.93423191970045        2.06331183907928       -0.08495337312758
H            3.58950019700823       -1.71518783019084       -0.02323000502800
H           -1.85449557448560        3.07633667710203       -0.27242306227971
H           -3.45729575927331        1.97381798744132       -0.67409069598366
H           -2.88245856999250        2.12172944320693        0.79017959185372
H           -1.12744956696272       -3.13492855533551        0.83705453403273
H           -1.10546269469783       -3.11727689254983       -0.95221494691478
H           -2.52080715046607       -2.49376941975634       -0.06818913104681
H            1.33717838454144       -2.92644104439421       -0.05364806142856
25
 energy: 13.505560176362 xtb: 6.6.1 (8d0f1dd)
C            3.38194875338767        1.09720022702107        0.13354522337787
N            2.36243629867735        0.09828513559323        0.04403708511352
C            2.62684504210624       -1.26329159552074        0.05863702453785
N            1.42533483275943       -1.92436790065964       -0.01890405331366
C            0.43092353570262       -1.01822689659337       -0.02104446772727
C            0.95910097263599        0.26700632138987        0.02195901737798
C            0.13131122398911        1.42788467543990        0.00355186030705
O            0.51463856230965        2.59524014678327        0.08423620391301
N           -1.30645989023248        1.09775388259270       -0.13507706798577
C           -2.38786101305437        2.12942958795290       -0.14744264755640
C           -1.80305384510699       -0.16205127633839       -0.07390429860148
O           -2.99852758180057       -0.38325012396681       -0.06303964795344
N           -0.90820755282304       -1.24618763418381       -0.04121533633971
C           -1.43562349340387       -2.58701709922871       -0.05637478774374
H            3.82924061789196        1.12531813169253        1.13426035717573
H            4.17954096715898        0.88625403378631       -0.58637855177687
H            2.93398939638431        2.06309226248319       -0.08364048007678
H            3.58896538671263       -1.71479325608850       -0.03181963411749
H           -1.85586092157811        3.07616105380003       -0.27413306831407
H           -3.45764924702346        1.97263351308390       -0.67380085806299
H           -2.88301819525845        2.12371100412955        0.79049712511745
H           -1.12717197396137       -3.13456470008801        0.83679170421657
H           -1.10533055390961       -3.11723498477878       -0.95248001613757
H           -2.52057209459384       -2.49351761859655       -0.06843338446527
H            1.33727544096648       -2.92643828753300       -0.05279340481719
25
 energy: 13.194961973226 xtb: 6.6.1 (8d0f1dd)
C            3.38248918464316        1.09622975098395        0.13500080763055
N            2.36182148735065        0.09801435164797        0.04904795045038
C            2.62661432654674       -1.26399892012361        0.09409179044998
N            1.42483656551195       -1.92406362450341       -0.01695706395103
C            0.43104311354907       -1.01744710332540       -0.02428183222060
C            0.95982928931734        0.26692858098046        0.02135225539442
C            0.12886412788742        1.42789000717334        0.00256959354922
O            0.51583629693775        2.59417901591572        0.08170994380916
N           -1.30623299536910        1.09850443639286       -0.13070651549448
C           -2.38939376370612        2.12963592096326       -0.14644567550010
C           -1.80297131533853       -0.16254002593452       -0.07546455089629
O           -2.99827479903631       -0.38358383507790       -0.06681422448566
N           -0.90755187763737       -1.24560385757412       -0.04437515099921
C           -1.43474090392919       -2.58687600914940       -0.05737109855705
H            3.83275482179959        1.12322158161791        1.13415017115675
H            4.17804056264830        0.88433571264635       -0.58746827372750
H            2.93523347830908        2.06243254253117       -0.08137991884588
H            3.58582637732051       -1.71099056808522       -0.06601385984561
H           -1.85823310273927        3.07561562982890       -0.27866915916612
H           -3.45788372435244        1.96942585932589       -0.67319675138038
H           -2.88332777525650        2.12848314915616        0.79224307920893
H           -1.12519395928838       -3.13298656107680        0.83624215558151
H           -1.10490579097018       -3.11779076030138       -0.95304568344111
H           -2.51970724753245       -2.49380220000817       -0.06853778059634
H            1.33744229127056       -2.92618447183188       -0.04864631197622
25
 energy: 13.187291649477 xtb: 6.6.1 (8d0f1dd)
C            3.38263479766005        1.09591049662447        0.13466281471636
N            2.36161705446197        0.09824209665632        0.04867844853407
C            2.62657038470617       -1.26360910655151        0.09422700145809
N            1.42481159046222       -1.92395861857338       -0.01747512116184
C            0.43104030729594       -1.01734441791273       -0.02514702940345
C            0.95976081642023        0.26699233265310        0.02051081582960
C            0.12887199008833        1.42808728123739        0.00238615963658
O            0.51555096787693        2.59411072306570        0.08267022554302
N           -1.30611486815664        1.09849401559568       -0.13205423160695
C           -2.38894065871066        2.12966824728387       -0.14596644675949
C           -1.80293450179887       -0.16254659536976       -0.07563080224359
O           -2.99826031553247       -0.38328781326961       -0.06615695605306
N           -0.90754970958069       -1.24537856150936       -0.04455266265720
C           -1.43464598627629       -2.58680623394847       -0.05696463056839
H            3.83225686583682        1.12340345672547        1.13410090540841
H            4.17838209861008        0.88276298272074       -0.58698975200699
H            2.93661587229752        2.06232157621726       -0.08266278560824
H            3.58437143682319       -1.70960348929965       -0.06551757887895
H           -1.85795645439273        3.07608609513153       -0.27501564680926
H           -3.45660034616815        1.97122423740986       -0.67541953414398
H           -2.88530665078026        2.12470923524718        0.79117533987251
H           -1.12470478157811       -3.13256454191156        0.83669459966400
H           -1.10499586730759       -3.11787983241527       -0.95258984423448
H           -2.51962652433458       -2.49392608340065       -0.06782223317120
H            1.33736715001387       -2.92607888023445       -0.04810715920822
25
 energy: 13.098811917721 xtb: 6.6.1 (8d0f1dd)
C            3.38250708294428        1.09556662354955        0.13454111149451
N            2.36105133297222        0.09874413683129        0.04860116647938
C            2.62662923913336       -1.26315555605299        0.10016540389294
N            1.42463916742800       -1.92383906126296       -0.01761085352334
C            0.43102048637959       -1.01724254219484       -0.02699356497587
C            0.95951767201004        0.26702907022012        0.01889074571065
C            0.12895208518429        1.42836180856129        0.00190341461938
O            0.51441825787049        2.59402590946767        0.08490398468197
N           -1.30589376594203        1.09822952128887       -0.13555915884765
C           -2.38778495564206        2.12964543811328       -0.14589699142464
C           -1.80291727933969       -0.16263845579795       -0.07599373867445
O           -2.99831939811603       -0.38281320507943       -0.06453226068560
N           -0.90754661423578       -1.24508416205602       -0.04535777296920
C           -1.43450508214505       -2.58678525277683       -0.05660540515829
H            3.83060076628858        1.12462061072872        1.13465809990554
H            4.17894965793755        0.87993266843860       -0.58522437230436
H            2.93863007507152        2.06216949891700       -0.08511343419912
H            3.58205512698204       -1.70707622674268       -0.07184364001191
H           -1.85682287309125        3.07682136464687       -0.27064590010207
H           -3.45486832177963        1.97355561626294       -0.67802221805488
H           -2.88636154830286        2.11925546278733        0.79044584475366
H           -1.12403109082965       -3.13186221440877        0.83723533736526
H           -1.10508860819166       -3.11826982580980       -0.95203314841043
H           -2.51950808154148       -2.49420377832239       -0.06703550531828
H            1.33689133689147       -2.92595884713673       -0.04584324809590
25
 energy: 13.047461203905 xtb: 6.6.1 (8d0f1dd)
C            3.38201456960635        1.09575568891736        0.13462903866940
N            2.36071790185809        0.09900633752119        0.04855954581704
C            2.62696661239135       -1.26324904436555        0.10564947617495
N            1.42452065834932       -1.92392411572152       -0.01707753151477
C            0.43105874688382       -1.01738150671768       -0.02789609087645
C            0.95935209430617        0.26692486482667        0.01785435297091
C            0.12949143030625        1.42841176038329        0.00146074744500
O            0.51320547705843        2.59407967757503        0.08678717172187
N           -1.30558975870670        1.09787968905018       -0.13925878902939
C           -2.38655389504458        2.12954140416067       -0.14650230456936
C           -1.80281359743675       -0.16259156413692       -0.07607771960008
O           -2.99829950885686       -0.38237940574122       -0.06235451051613
N           -0.90753637852423       -1.24507037865806       -0.04592173850272
C           -1.43461890993129       -2.58679981556293       -0.05651289878650
H            3.82869291897689        1.12653391846053        1.13538009314579
H            4.17937869310236        0.87871896221763       -0.58346807338478
H            2.93894049563062        2.06217205453942       -0.08704363858344
H            3.58129018467371       -1.70619915400554       -0.07917071225077
H           -1.85550353928512        3.07737211858816       -0.26754593128176
H           -3.45359215379385        1.97542398306290       -0.67927030364485
H           -2.88607748592051        2.11524227503838        0.78948153761835
H           -1.12423789364869       -3.13160217800911        0.83752526341702
H           -1.10519795089108       -3.11863456665298       -0.95172743389271
H           -2.51961966012662       -2.49417371134980       -0.06694351130501
H            1.33622561695920       -2.92602869124795       -0.04352214309430
