72
 energy: -99.357353207717 gnorm: 0.008163426754 xtb: 6.6.1 (8d0f1dd)
N           -1.51926200250879        3.03714800374711        1.93792523215068
C           -2.58153633288946        2.41503822548111        1.72427858241843
C           -3.25597408404859        2.02552888645484        0.42314619663849
C           -3.68692493391248        0.57156876402388        0.46396549577384
C           -4.56605731374397        0.07648207642659       -0.50143107625623
C           -4.96470625277019       -1.25006347353849       -0.50868186016574
O           -5.81948010995948       -1.80247203795981       -1.39106946095530
C           -6.43964761267817       -0.98873510075120       -2.35881107460687
C           -4.45443275522279       -2.13959611034643        0.47744217808194
O           -4.88925502836526       -3.40969736565606        0.39195790143469
C           -4.45824844820775       -4.35116360198900        1.34748039137273
C           -3.57024329806485       -1.64457668157070        1.42350513762236
C           -3.19349623118789       -0.30882732373958        1.41635723465786
C           -2.40497810540769        2.28484810166814       -0.84189958260809
C           -1.44377523523856        1.15899625404871       -1.23904093721259
C           -0.29097123510923        0.94804882794684       -0.25483325730631
N            0.61057324165917       -0.07859618416734       -0.71420238552511
C            1.98305277222255       -0.00611567469175       -0.28587075082824
C            2.94260927676908       -0.42087644854521       -1.41971845345986
C            4.36314165667204       -0.20650936732905       -0.99071238309747
C            4.99457921342430        1.01002270745718       -1.21553782364015
C            6.28991491094972        1.23230558020342       -0.77944799630771
C            6.98667058619614        0.24100753341702       -0.09947342764392
O            8.23883453137152        0.34705621143868        0.37563015571182
C            8.94451967551850        1.55443926962147        0.20136658385393
C            6.35048893896068       -1.01262558771438        0.13345200443911
O            7.09647015395578       -1.91790392286261        0.79178881948522
C            6.56238419222081       -3.19289491848187        1.06004494714461
C            5.05193460545550       -1.20912261875184       -0.31404350238059
C            0.04035199563607       -1.40025494306412       -0.81557647075827
C           -4.54006945820043        2.95933243033456        0.41447240625088
C           -5.41892042959126        2.64642397226113        1.54277860059036
C           -4.19390509710740        4.44593266795295        0.35904917023920
H           -4.94480759065301        0.73806715839897       -1.26339376766251
H           -7.02469682145086       -0.18895119425861       -1.89425309608052
H           -7.10702564598178       -1.64852368914212       -2.90967518779562
H           -5.70929612654854       -0.55650111706616       -3.05012903611594
H           -4.75135541297245       -4.05810214879909        2.35988471720405
H           -4.95478261465652       -5.28282067486192        1.08356807957026
H           -3.37392535262891       -4.49471512721326        1.30754281854082
H           -3.16856147072673       -2.29409384174149        2.18428910791115
H           -2.50406678009688        0.03185652657791        2.17354852075035
H           -3.08432933650200        2.43474227614379       -1.68371674936986
H           -1.84037474787464        3.21177944486357       -0.71880441916661
H           -2.00344630430205        0.23038974462009       -1.34837140277255
H           -1.01411501158999        1.40522662565588       -2.21218290316986
H           -0.69714263431824        0.69393705658603        0.73687360215360
H            0.27721049906558        1.87652263906003       -0.16420626938178
H            2.16897138876433       -0.64383666330901        0.59159976629419
H            2.21286682077701        1.02263659947839       -0.00251415414096
H            2.71788744914427        0.18663064649155       -2.29663275241309
H            2.77830275844552       -1.46747989868009       -1.67607513082650
H            4.47456676812708        1.79398883508833       -1.74423016982221
H            6.75421839222536        2.18500013239701       -0.97517518348258
H            8.43261516871663        2.39011499325094        0.68796178165034
H            9.09145942504253        1.78259304100838       -0.85842433822400
H            9.91197407645475        1.39832535147156        0.67472276882384
H            7.34449303756131       -3.73122836040734        1.59193322018334
H            5.67198349026130       -3.12928732215333        1.69327416097936
H            6.31833126733793       -3.72699797176519        0.13666480822165
H            4.56293030009246       -2.15577533745500       -0.14571061795862
H           -0.37671381006922       -1.55831171179456       -1.81272545711460
H           -0.76082247138813       -1.54366912704190       -0.08243226095528
H            0.80384835381683       -2.15556338424830       -0.64464765190259
H           -5.06919139687081        2.69834725779322       -0.51504049754967
H           -3.17628079768516        2.16558040785221        2.59508318037979
H           -5.74670506504793        1.63809058808816        1.71397065951415
H           -5.75669913306458        3.41650676798071        2.20858662437924
H           -3.60259845464030        4.74060277478261        1.22244971730874
H           -3.64296146123530        4.69424893657788       -0.54353008468933
H           -5.11133860683056        5.02896127353493        0.36012566790191
H           -0.95754833849291        3.32169986341025        1.13676617631558
