  25
        -42.09476579
 C          5.8615156055        0.0687458378        0.0921813378
 N          2.0683371293       -0.1017636066       -0.0331739219
 C          2.2272090505       -1.4292542204       -0.0153973732
 N          1.0051098474       -2.0190815611       -0.0019458099
 C          0.0541600309       -1.0377002634       -0.0113211568
 C          0.7225526258        0.1799578530       -0.0319903541
 C          0.0223834040        1.4409492558       -0.0261563762
 O          0.5345933473        2.5381757470       -0.0330207957
 N         -1.3667579763        1.2478830457       -0.0074308204
 C         -2.2053867674        2.4354698539        0.0139699434
 C         -2.0534201122        0.0492834212        0.0070990837
 O         -3.2549617780       -0.0024649457        0.0263694248
 N         -1.2885842157       -1.1378296991       -0.0006930580
 C         -1.9758086684       -2.4125212089        0.0093985630
 H          6.3063521991        0.2734376965        1.0512766122
 H          6.3796273171        0.1771191252       -0.8465923468
 H          2.8022100224        0.5944205767       -0.0446793702
 H          3.1642165848       -1.9468396859       -0.0102675021
 H         -1.5552968520        3.3080187672        0.0139932718
 H         -2.8557378367        2.4475901502       -0.8611798147
 H         -2.8328852224        2.4299887602        0.9056874154
 H         -1.7079309163       -2.9865894036        0.8970181933
 H         -1.7409481204       -2.9816718581       -0.8908397139
 H         -3.0458621703       -2.2061746026        0.0296224931
 H          0.8416129920       -3.0151803107        0.0122344917
