72
 energy: -99.311913184711 gnorm: 0.004646784933 xtb: 6.6.1 (8d0f1dd)
N           -1.69879217660390        2.64498636671207        2.16399160975847
C           -1.76251403377619        1.94476148978700        1.13757494445734
C           -2.93509080761955        1.81782084465078        0.21247012255164
C           -3.45372124061156        0.39000088482591        0.27125247377910
C           -4.38246385826803       -0.05794030818946       -0.66877745861407
C           -4.88918134447656       -1.34635752001217       -0.62677020531498
O           -5.79287941342457       -1.85756808142347       -1.49019076590218
C           -6.37303651555198       -1.01537502096951       -2.45806052548462
C           -4.45184857083160       -2.23831055597885        0.38849612263840
O           -4.99171010385897       -3.47474064977577        0.35003563574129
C           -4.68556927620453       -4.38479238885263        1.38026792373748
C           -3.53364773815431       -1.78539459432661        1.32159602447961
C           -3.04543266243868       -0.48681674531886        1.26384881144487
C           -2.36071228913867        2.12514637539562       -1.19694848353494
C           -1.42563408130824        1.03486388419666       -1.74195899741036
C           -0.18313373333864        0.91427375812275       -0.90586680786228
N            0.60113213267577       -0.33260990270281       -1.04877548730060
C            1.82150094569920       -0.26904874516842       -0.18293329808529
C            2.86972755257950        0.63282455924413       -0.73424376927460
C            4.23551863920442        0.48294426588404       -0.55007642338728
C            5.11013130577488        1.48871772241763       -1.04277415140828
C            6.46631198470855        1.42439544376948       -0.84880706650692
C            7.04295576215821        0.34755536639538       -0.17326067738904
O            8.34957592422872        0.18898859830357        0.08174532783769
C            9.25904511639645        1.19383177935752       -0.30561896954797
C            6.19371337727350       -0.69817741378508        0.30406696574282
O            6.84587826351806       -1.70626537432777        0.92213383881419
C            6.11268153723505       -2.79620052236560        1.42471843328183
C            4.83441770541664       -0.61819214627915        0.12339905315495
C           -0.19272765481435       -1.52749577318749       -0.70438870116654
C           -4.10689814703141        2.78611406936191        0.54784851985486
C           -4.70595944062647        2.47486768883363        1.91684818629023
C           -3.70508680910324        4.25654599777494        0.48301402000562
H           -4.72294001710796        0.61679496872724       -1.43669239138160
H           -6.88009784804507       -0.16318891726397       -1.99572540930028
H           -7.10457634392147       -1.63026887687422       -2.97860799193497
H           -5.62994364974246       -0.65421215637697       -3.17663902800434
H           -4.97049183482887       -3.99127581399472        2.36050818376744
H           -5.27069257255616       -5.27685548747042        1.16597427570596
H           -3.62153375179452       -4.64316829067446        1.38567195754622
H           -3.20058550020364       -2.43350396218719        2.11602429531724
H           -2.35930391760342       -0.15724306465672        2.02917763038933
H           -3.18578835179884        2.25677020576391       -1.89622877756193
H           -1.81225432335623        3.06639213239290       -1.15013055934933
H           -1.97996732992579        0.09660536859592       -1.76973221538359
H           -1.18078461712206        1.30321586357725       -2.78144954443720
H           -0.89436875766264        1.36140132705765        0.67039655011518
H            0.47040829524053        1.77373383539902       -0.99809655686107
H            2.21809964053037       -1.28136597045806       -0.07894705788902
H            1.47837252188816        0.06376797906799        0.80697829978538
H            2.53362587146139        1.52669488205546       -1.23401477044295
H            0.92202128904182       -0.43262240470424       -2.02315290807175
H            4.68731423304742        2.33209635056022       -1.56606261105370
H            7.08929445410647        2.21988070247198       -1.22455534930418
H            9.02762848061521        2.14791150227496        0.17726932267619
H            9.27206904124776        1.32696018894692       -1.39123667045387
H           10.23558161343084        0.84759211407030        0.02730636882414
H            6.84966094895324       -3.46676937063632        1.86226004503633
H            5.40505968037065       -2.48218802601636        2.19895711585801
H            5.57621153452667       -3.32088913967426        0.62719010757038
H            4.20699356764906       -1.40548914543966        0.50675615531644
H           -1.02212411144651       -1.65409286501422       -1.39503570493524
H           -0.59926177696433       -1.41396632744491        0.30057278694308
H            0.43149580392315       -2.41853654745398       -0.74767438421474
H           -4.87949834043938        2.60994143613925       -0.20930737173816
H           -3.97234414600275        2.66076581788316        2.69523485064409
H           -5.03085311365014        1.43901828191297        1.97779233213724
H           -5.56640477323972        3.11473716046653        2.09383603141654
H           -2.89854994951447        4.45943171299908        1.18135653904348
H           -3.39536687914516        4.54846837183796       -0.51677431814454
H           -4.55656978270416        4.87244883083771        0.76049191123079
H           -0.82957003993104        2.69179350343080        2.68371747837233
