72
 energy: -99.310619541386 gnorm: 0.002041549850 xtb: 6.6.1 (8d0f1dd)
N           -1.87413163336924        2.77843410805344        2.34052202186228
C           -1.81283893560705        2.09104979651378        1.29960744481717
C           -2.94760334680642        1.90427386129284        0.33075871646233
C           -3.43200615438753        0.46301929091417        0.38738981830429
C           -4.35220462737252        0.00579889459156       -0.55831877536541
C           -4.83262930324313       -1.29239285980364       -0.53279226962288
O           -5.72996068466746       -1.80791092035408       -1.39942040749445
C           -6.33526465094789       -0.96105315661675       -2.34765986239377
C           -4.37052426504683       -2.18996041111158        0.46689174594668
O           -4.88068453894407       -3.43707868238898        0.40761635595434
C           -4.53349283230111       -4.36658432016215        1.40705806353899
C           -3.46028016661726       -1.72934811694539        1.40424699625785
C           -3.00071020039272       -0.41845677688114        1.36594831866835
C           -2.36390447535143        2.20813144895866       -1.07403665588770
C           -1.43921981317739        1.11085212656140       -1.62854533726820
C           -0.10359785732738        1.07570040882138       -0.99116922658129
N            0.55068437485262       -0.02495827839745       -0.63396049386726
C            1.95761359994579        0.02866069930899       -0.32158464212644
C            2.81979725417055       -0.41188688274531       -1.52130229829840
C            4.27184988769281       -0.41083012382854       -1.14797734950555
C            5.24040962030809        0.41201810343511       -1.95410593512515
C            6.40691482025569        0.85373599218091       -1.12468381955791
C            6.74904333973895        0.25742384700968        0.04021228497783
O            7.76007610595494        0.58305517868365        0.86576686238241
C            8.56978512894395        1.68875697791759        0.53208705643429
C            6.02904165074285       -0.96892306153516        0.39013533701316
O            6.66000188339872       -1.82247835651963        1.18681341708111
C            6.02978830082264       -3.06780306893971        1.39890411824789
C            4.75556443148923       -1.10867007853330       -0.10877176186828
C           -0.06790299372312       -1.32854279505745       -0.66635252633162
C           -4.16003127126460        2.84046214117043        0.61218122053262
C           -4.83131657252416        2.50369020677272        1.94141763429438
C           -3.79551459071901        4.32210894322268        0.57978190920846
H           -4.70803630270845        0.68124366761592       -1.31830516101733
H           -6.84852792341185       -0.12296918393209       -1.86662390881306
H           -7.06469863655237       -1.57923218725451       -2.86724830892149
H           -5.60707721605824       -0.57931004549080       -3.07089009801241
H           -4.82225458637028       -4.01284059110463        2.40119582631886
H           -5.09013970526426       -5.27115887084230        1.17028128769306
H           -3.46137450467908       -4.58800274646693        1.39487135326567
H           -3.10764583764900       -2.38156524628510        2.18665665133397
H           -2.31701737478811       -0.08859912290505        2.13278955291064
H           -3.18860395544355        2.34119662264207       -1.77327969584367
H           -1.81398173651115        3.14906405196247       -1.03107682288613
H           -1.93904181565086        0.14565314373460       -1.56859720448058
H           -1.28290823357730        1.33845802270330       -2.69164916631544
H           -0.89489034766966        1.57540851674953        0.95432583568592
H            0.45510465185694        1.99946651188818       -0.95547460069403
H            2.17379137578665       -0.62967933005030        0.52330829453800
H            2.22964443802364        1.04782386272239       -0.04075655113167
H            2.63844180114133        0.25572173119242       -2.36496614022015
H            2.52024427044735       -1.42062685298117       -1.81675729340136
H            4.71647051756052        1.29165864057963       -2.33948267858905
H            6.99556739016973        1.65876863363699       -1.53351375494861
H            7.97560021830781        2.60433219257254        0.45551153556687
H            9.10425760763807        1.52063891819955       -0.40733673600250
H            9.28668360511882        1.78589961701776        1.34457489213138
H            6.61206001769826       -3.58389620164746        2.15858661397336
H            5.00057845231325       -2.91940280213522        1.73938719601552
H            6.01415729706922       -3.65718601292394        0.47803412232951
H            5.61064994264761       -0.13635414206997       -2.83066134073462
H           -0.23922033780239       -1.66418648743479       -1.69174018563121
H           -1.02519080262880       -1.30735139524639       -0.14055330597147
H            0.58425906067687       -2.04405490139095       -0.17143614523739
H           -4.88636656193209        2.65461128469122       -0.18731381027772
H           -4.14925980499722        2.69873257191470        2.76252774253545
H           -5.13558059418029        1.46039084248288        1.97493825377504
H           -5.71555135215353        3.12253073163449        2.06957884060490
H           -3.06066092076145        4.54668835107048        1.34659976568538
H           -3.40735858623778        4.62435433185834       -0.38934958046166
H           -4.68605522117366        4.91220680489933        0.77973221967707
H           -1.03630417578624        2.85541245530183        2.90871938746159
