25
 energy: 105.505932836154 xtb: 6.6.1 (8d0f1dd)
C            3.26021425160352        1.16533737597425        0.06900926024704
N            2.27946917141606        0.10278987892621        0.03370095691608
C            2.62831994982318       -1.16616197171958        0.01031227446552
N            1.54291725684859       -1.94865123116894        0.02681714749533
C            0.37619734205973       -1.12081309279317        0.10244144052409
C            0.92099020860288        0.20268935872071        0.07914109847301
C            0.10252894573578        1.42789862379469        0.08240056708270
O            0.66493726774485        2.52828387580889        0.11383752134687
N           -1.20575259094292        1.16812844587940       -0.00708989452015
C           -2.09231115907369        2.26151598129676        0.16203773728551
C           -2.76373317186723       -0.44801731240029       -1.50696183244631
O           -3.83472010256920       -0.08980183466791       -1.39864878433376
N           -0.84186534955222       -1.43914693945609        0.21764369497471
C           -1.35252374475172       -2.75350071942342        0.21713715814114
H            3.74410046988047        1.21266429839877        1.04836788322466
H            4.02954221801396        0.98904307171211       -0.68265231360896
H            2.77586531646901        2.12548350549578       -0.10843800472021
H            3.64071388150367       -1.51769967139252       -0.01562440427113
H           -1.54267734781894        3.19223512572415        0.25273127173465
H           -2.78128670087014        2.34223476675934       -0.68208172586331
H           -2.71255305505365        2.09660330049410        1.04665602844899
H           -0.67308009694796       -3.40631136605676        0.76894492350963
H           -1.47509592292299       -3.16787157113744       -0.77940037006475
H           -2.32399729382018       -2.71179859582950        0.70289782582080
H            1.60834626169525       -2.95316363864157        0.03290928118416
