25
 energy: 33.165443220195 xtb: 6.6.1 (8d0f1dd)
C            3.26210743103283        1.18134605166242        0.08578861439142
N            2.27205160815057        0.13030162873357        0.06458546874125
C            2.59417938944500       -1.19530110971629        0.10587097531748
N            1.42893754679583       -1.93360142426253        0.02458335929807
C            0.33916253606464       -1.08758576610533       -0.02158518671891
C            0.88506336757082        0.19151189165389        0.00266441152260
C            0.03206331481739        1.33269689553127       -0.03377602552748
O            0.48597412512783        2.47560058528712        0.08453312809944
N           -1.37173819792254        0.99858850057794       -0.17350780622948
C           -2.18745840908040        2.18638419274947        0.05392188845604
C           -2.05120275031264       -0.20285361527445       -0.68506047451664
O           -3.21119761236542       -0.35262697969352       -1.00433290238711
N           -1.01340074995130       -1.33210662016867       -0.06930426834796
C           -1.44245554024531       -2.69531523972215        0.09615115864876
H            3.77785283444757        1.24743383967122        1.05204093715038
H            4.03619528230319        1.00547242800505       -0.67248955698617
H            2.75585111012391        2.12447469713565       -0.11336808210254
H            3.59024430101151       -1.56873918277051       -0.00470432649165
H           -1.56339631185784        3.07976098427677        0.14518133435771
H           -2.82996885017857        2.29291045069250       -0.80979595300588
H           -2.79151737362632        2.07824000105241        0.95249150080801
H           -0.82660362105484       -3.20628507930517        0.85792381389948
H           -1.38645943320605       -3.26238064135211       -0.83292924169029
H           -2.48630473644547       -2.67688171336855        0.40651019475172
H            1.49028669257114       -2.93748927751336        0.05487683918549
