25
 energy: -3.352516837895 xtb: 6.6.1 (8d0f1dd)
C            3.24934896842074        1.18013269661840        0.07857240171266
N            2.30216436966150        0.11058680586928        0.03782363419013
C            2.60300824652456       -1.23663135164929        0.03846807989625
N            1.41134975164905       -1.93107885518943        0.02543665924912
C            0.36970967552826       -1.06219706582005        0.01622204675675
C            0.90771362726829        0.21882218448289        0.03699333907361
C            0.09570305364595        1.36170240207423        0.01863062572227
O            0.48643750705556        2.53548377200227        0.04447840386963
N           -1.30703517814491        1.02118000753905       -0.06287533744650
C           -2.20986975071728        2.15899714055398       -0.01783930062931
C           -1.89710886598650       -0.20932773136824       -0.22563529036304
O           -3.09171620446580       -0.38081061215857       -0.34545883013040
N           -0.98854572320938       -1.29839315780031       -0.05695829473489
C           -1.47043056020855       -2.65696000649774       -0.01117574455260
H            3.73680250504624        1.23142104341725        1.05793696455764
H            4.01834084566321        1.03876385456000       -0.68754669550253
H            2.71067622025625        2.10876058856612       -0.09968719432838
H            3.58803067405725       -1.64530615946165        0.02158349054478
H           -1.63321702983873        3.08270832183515        0.02435477173066
H           -2.82053165949693        2.14875082202358       -0.91494609697556
H           -2.85551118963856        2.08035239653050        0.85565170033257
H           -1.07329553070853       -3.20383791760109        0.85363452023838
H           -1.20832450375012       -3.19743720622582       -0.91905703761154
H           -2.55162244984518       -2.59080105630442        0.06288154572411
H            1.39468617800573       -2.93582373847939        0.01608302066961
