72
 energy: 74.806097791694 xtb: 6.6.1 (8d0f1dd)
N           -1.92072101114946        3.11213516580760        2.37128277330035
C           -1.81146635855156        2.29903772071830        1.42060975587728
C           -2.84524831856500        2.10798936861727        0.33854266057701
C           -3.33186152568309        0.66668042614519        0.37334860869839
C           -4.16812376825272        0.18563861232950       -0.63696443921477
C           -4.67230531011516       -1.10160633819177       -0.61089959508399
O           -5.52887184980975       -1.62591780409454       -1.53439147045090
C           -6.00678184287409       -0.79083427791807       -2.55854480665106
C           -4.30738094565760       -1.97177644935457        0.44269292950003
O           -4.83551666662850       -3.22680393610830        0.38619028899574
C           -4.57030544330997       -4.10459005530502        1.45086002251120
C           -3.49412693645373       -1.48992490165552        1.45068095008246
C           -3.01992148209977       -0.18474789105333        1.41734073435221
C           -2.15633207420629        2.40239779545183       -1.02104955340192
C           -1.22487337916775        1.30403991437054       -1.58012640195421
C            0.08676293030805        1.21803653630645       -0.89608275884637
N            0.59090097066959        0.08857521435998       -0.29600208322727
C            1.95427088859232        0.12714963270040        0.13986122451560
C            3.03096969397823       -0.12947464169984       -0.93448748994387
C            4.36861991432662       -0.01238813047900       -0.23155553696730
C            5.01512208695126        1.20545558364987       -0.05426539477134
C            6.35688478199166        1.31820374684336        0.26696902958992
C            7.10194797482657        0.17415752003713        0.55807334919956
O            7.31770394812328       -0.92287976836674       -1.26011464233746
C            8.56277654061869       -0.77358090322589       -1.39721949500102
C            6.32623213581976       -0.99727720280083        0.78772526183520
O            7.06084977255569       -2.02541619460411        1.30480003991343
C            6.73791846246219       -3.38585125370940        1.02275162711210
C            5.01176827751141       -1.10809593705215        0.33618027765802
C            0.04489446016790       -1.21694730858133       -0.58465519942855
C           -4.07227277156464        3.04910331959407        0.49143109016364
C           -4.82351880449238        2.77361896415757        1.79129615216989
C           -3.69697913681846        4.52566904668829        0.40402828127985
H           -4.44557010534451        0.84458955290650       -1.44328754682062
H           -6.53041239369572        0.08735433029915       -2.16378285447293
H           -6.70722297087343       -1.39604767644454       -3.13238671151251
H           -5.19660808394372       -0.46124427739589       -3.21526695278175
H           -4.95097343081555       -3.70565220324660        2.39541147862026
H           -5.10706258598518       -5.02294895392228        1.22137380729000
H           -3.50206550608462       -4.32267510022454        1.53654112310533
H           -3.21292085585404       -2.12186977480654        2.27758905530031
H           -2.40748850404385        0.15134637221368        2.23786557575137
H           -2.93479208938058        2.59053674023038       -1.76261001012241
H           -1.57724493179124        3.31961047032152       -0.92250761298699
H           -1.72400512053384        0.33849826147575       -1.55714027462821
H           -1.06334662328685        1.56599778201680       -2.63537881597225
H           -0.94209120712293        1.63101142523465        1.29314354422465
H            0.75016510841153        2.06479462289653       -0.94823445609543
H            2.07481802609072       -0.62271371237861        0.92511677228960
H            2.15382687303750        1.11002296221005        0.54995187872009
H            2.92257759979943        0.57786048756309       -1.76533283640639
H            2.89233066984668       -1.12162803543957       -1.36894833689318
H            4.50811123993162        2.10051730677154       -0.35798285209720
H            6.84267320225108        2.27443678694471        0.31126197128918
H            8.22191340123331       -0.15821161928551        0.27251074408396
H            8.76441771787135        0.07167440721720       -2.06615124570758
H            9.47943014707728       -1.41708603380446       -1.36227303605761
H            7.57288127064314       -3.99406369607732        1.37745779236082
H            5.84809562465837       -3.70582317123036        1.56693984812129
H            6.57269538473000       -3.62853746696892       -0.03940152430703
H            4.57444020820954       -2.08409617085184        0.20373143120710
H            0.00146450705156       -1.46520657436242       -1.65479187276990
H           -0.95734802234244       -1.28802315027498       -0.16789848542034
H            0.66330040039214       -1.96250700704405       -0.09083183229857
H           -4.75649518973090        2.83016786636689       -0.33784636512138
H           -4.17526757772766        2.98979877527533        2.63148599600830
H           -5.14510232578911        1.73450640284014        1.83940196953700
H           -5.70686247122445        3.40682260171319        1.85655197086984
H           -2.96976680778909        4.75818712916754        1.17312473004636
H           -3.29017061694547        4.77627509017033       -0.57253467961125
H           -4.58335584874627        5.13867794437106        0.55913806514377
H           -1.14810314864278        3.15733271666664        3.03010182503590
