72
 energy: 19.608902476733 xtb: 6.6.1 (8d0f1dd)
N           -1.86895262337810        3.07419397042916        2.31621196682511
C           -1.75980273280061        2.29178907950271        1.33930593653421
C           -2.81864668689308        2.09250476107357        0.28930396192846
C           -3.30377246614602        0.65085028207633        0.33174717522472
C           -4.12673463025985        0.16316029968048       -0.68607698438957
C           -4.61538621146213       -1.12883876465698       -0.66239471898571
O           -5.42738440326224       -1.67908844156856       -1.60894864044641
C           -5.90014935780560       -0.86357727871820       -2.64973938595655
C           -4.27330047156374       -1.98764574935323        0.40444577987821
O           -4.80188623030849       -3.24106167261280        0.33864093699112
C           -4.57759671969837       -4.12182162101841        1.40908770648247
C           -3.45867723581161       -1.50453278504125        1.41050540490215
C           -2.98551272548244       -0.19731979712914        1.37625775547656
C           -2.13496128104520        2.38356669890541       -1.07395467329306
C           -1.17480625756580        1.28604130027027       -1.56933654366299
C            0.07619604084875        1.23530797864509       -0.77904289897066
N            0.68117790003720        0.08860445604162       -0.34441387843332
C            2.00143615011606        0.15292363158601        0.20869567092477
C            3.10566704724913       -0.11379332525223       -0.83518776648076
C            4.45465731192565        0.05813090268131       -0.20155011602554
C            4.98666329322355        1.32259949660177       -0.00542134458804
C            6.24987569364307        1.50501157668758        0.51657134816478
C            6.97333717508815        0.40341720973035        0.91365981224093
O            7.16405372083021       -1.59711051014499       -1.87681010270223
C            8.35327680003487       -1.37675493887092       -1.82146339964087
C            6.43615571353489       -0.87920332378420        0.77299009818461
O            7.24732454794846       -1.88251862700066        1.21787913516049
C            6.86856356744876       -3.21752233513413        0.99394852064712
C            5.17329585568322       -1.04866460413006        0.22955859987420
C            0.10086802569285       -1.20284647158925       -0.58425362035501
C           -4.05328434653427        3.02338004879541        0.46270800862266
C           -4.80010240248715        2.72801280159664        1.76222010378849
C           -3.69916904448852        4.50819461121876        0.40251535223538
H           -4.39212586672362        0.81265366753131       -1.50399559468448
H           -6.45360376070638        0.00002286655772       -2.26762610529965
H           -6.57240990598187       -1.49401442909646       -3.22963260778052
H           -5.08852844038803       -0.51381345402427       -3.29629657054726
H           -4.96121189608685       -3.71896989493247        2.35298521550763
H           -5.12304061568418       -5.02986957763443        1.15534602719808
H           -3.51436294853248       -4.36001663063098        1.52271028735224
H           -3.19283828195030       -2.13126736761851        2.24702689642121
H           -2.37956266916867        0.15392883599811        2.19738593216775
H           -2.91031375998581        2.52508976468691       -1.82944618895843
H           -1.57698344413078        3.31817414963188       -0.98820184923217
H           -1.68238888346096        0.32278649013518       -1.56226748665007
H           -0.92911484730385        1.52226184706367       -2.61627110943017
H           -0.85643345676211        1.70461171118982        1.13357250418133
H            0.64836456756225        2.13951417534365       -0.67551206881332
H            2.08405827090859       -0.58276400435704        1.01380089982935
H            2.15255905255687        1.14721791722496        0.63484751653550
H            2.97091856596005        0.59818838780631       -1.65468148145370
H            2.98622205662209       -1.12335681288096       -1.23363133698126
H            4.42893937394621        2.18980863612192       -0.30343088382005
H            6.64733285613216        2.50229627508286        0.63319838059316
H            7.99464565797101        0.47195837787954        1.24405997854078
H            8.81851837540937       -0.39037621792188       -1.96558033569143
H            9.07232912826934       -2.18424493245359       -1.64652761952028
H            7.70017814325506       -3.83042631497469        1.34723127333559
H            5.96734718598441       -3.48039687364348        1.55702838211078
H            6.70635811323785       -3.39470841774297       -0.06968684629346
H            4.77755856183175       -2.03474975772621        0.06215649053076
H            0.02125226276297       -1.42163418337537       -1.65369561645975
H           -0.89625993633127       -1.25921374678269       -0.13861240193846
H            0.73112665402720       -1.95709928890267       -0.12101926734432
H           -4.73085542311140        2.80413146608447       -0.37075847566136
H           -4.16605434116655        2.96258537386178        2.61041832275632
H           -5.09148918320776        1.68168702574018        1.81603068859613
H           -5.69843256326907        3.33863095660455        1.81720407338677
H           -3.00163173128498        4.75594286823298        1.19530462034061
H           -3.26269329857695        4.78184723260836       -0.55442326286794
H           -4.60235259978049        5.09851232838548        0.54053609146118
H           -1.05416986524395        3.11963283122138        2.92518945287280
