72
 energy: 51.675647905794 xtb: 6.6.1 (8d0f1dd)
N           -1.74152665526272        3.02393031182884        2.29184841655767
C           -1.69427306687428        2.22459072958873        1.32566994062789
C           -2.80247609013799        2.08651813999354        0.30750051891350
C           -3.33814297005175        0.66566845349496        0.35921003799151
C           -4.22643625915213        0.20842292275870       -0.61469559664296
C           -4.74469002086354       -1.07356927419551       -0.57957181512300
O           -5.64786232298140       -1.57993364730698       -1.47357889084757
C           -6.15764629182014       -0.71927787751155       -2.45914977144253
C           -4.34688034834895       -1.96157652231035        0.44395930297062
O           -4.90336289885785       -3.20841948809658        0.39992560942157
C           -4.60509105872293       -4.09690612430319        1.44431384210023
C           -3.46723461241175       -1.50852907794716        1.40691256975047
C           -2.97313521614387       -0.21142670328807        1.36192969159156
C           -2.17805746667154        2.35973952389485       -1.08443151777016
C           -1.23685196826836        1.27597329605948       -1.65534138300289
C            0.06633166684653        1.23874858117036       -0.92086798597565
N            0.61587299776468        0.05020015067587       -0.42189432327731
C            1.98170608653635        0.05010709077362        0.02110824557759
C            3.00494467833083       -0.28422230791610       -1.08820137716839
C            4.35682151569899       -0.15597227321158       -0.46519958451637
C            5.04052959796750        1.04222606069383       -0.39903616245427
C            6.38010340684141        1.11386311418994       -0.01585728277199
C            7.00665837574427       -0.07742013858617        0.24415156233324
O            7.92834039224353       -0.83297192370262       -0.51757992042583
C            9.11814431738135       -0.15198225159502       -0.83534617623927
C            6.18126976534334       -1.18651924262084        0.66772526453519
O            6.95267465851467       -2.18146170641555        1.20362766545278
C            6.58149623056683       -3.53902508495641        1.05476024401944
C            4.89185723286662       -1.24671208621829        0.21839785351534
C            0.01785903466387       -1.25781459304184       -0.61025271240084
C           -3.99768610042766        3.06258624966895        0.52262491052087
C           -4.70188500959222        2.78332090929564        1.84872209293918
C           -3.58064519829105        4.52728122082129        0.45540276007543
H           -4.53183962367462        0.88063987958080       -1.40009724784976
H           -6.65011894424993        0.15649171384020       -2.02222999555392
H           -6.89085544362938       -1.30042621795044       -3.01719557415214
H           -5.37207319460127       -0.38249407492669       -3.14202202098710
H           -4.91980778277165       -3.69686883058203        2.41480691582276
H           -5.17786242975684       -5.00117492078621        1.24067954948519
H           -3.53809536649620       -4.34025921888581        1.46185702020590
H           -3.15176442526788       -2.15449463615044        2.21112313124027
H           -2.30473409050052        0.11538457057934        2.14196198472802
H           -3.00131401371419        2.52025634044211       -1.78501303886212
H           -1.60024020171285        3.28281205051332       -1.03201916756089
H           -1.70323244792834        0.29160047769129       -1.61551245931015
H           -1.14691231663078        1.52174991226561       -2.73447413109002
H           -0.82305777221659        1.58569459051918        1.07187649870686
H            0.81376187617403        1.97349124152416       -1.18221733398601
H            2.14668210350615       -0.66367048550330        0.84200208009935
H            2.21820133058072        1.04132013814439        0.38797671602279
H            2.85650737152076        0.39014235148914       -1.93260644156934
H            2.82505841909667       -1.29775066785937       -1.45388339274407
H            4.54740831234129        1.90595476824170       -0.80994856532160
H            6.94383532702765        2.01754681551811       -0.04763894355675
H            9.34262645698357        0.50856131054038       -0.08902701828316
H            8.96854104174147        0.40292779295445       -1.71158190801060
H           10.03343267799426       -0.70078185956906       -0.75226933433677
H            7.39487776618116       -4.13339946497359        1.46665732622870
H            5.67799252032991       -3.74432719151966        1.64452331312024
H            6.39088419975409       -3.85126296739551        0.02033523940536
H            4.34784822070316       -2.16061351850774        0.21320019790735
H           -0.06208452743910       -1.55904962636106       -1.66429332935087
H           -0.98329932046581       -1.27626659480859       -0.17206273909653
H            0.61884199163531       -2.01487794556851       -0.10084740620352
H           -4.72209922525666        2.89154091425954       -0.28415415053462
H           -3.99994722139334        2.96217149987439        2.64908253518466
H           -5.04649042535568        1.75229709985517        1.89963492899702
H           -5.56546150684507        3.43798512597668        1.97547350572450
H           -2.82458591450936        4.69767730443942        1.20846469921984
H           -3.18799253132622        4.78151417719981       -0.52556315507411
H           -4.43880430468193        5.17153315451686        0.65032087377980
H           -0.92967670299386        3.02503521934034        2.88661127727800
