72
 energy: 2.856371914024 xtb: 6.6.1 (8d0f1dd)
N           -1.57826452427474        2.86623760516828        2.25864690590541
C           -1.59816491184389        2.17053164339697        1.21279140240296
C           -2.76487693064920        2.06836948302110        0.26600195888809
C           -3.32551888076503        0.65569822674160        0.33489363188150
C           -4.27909436212651        0.23117765960614       -0.59100953158682
C           -4.81395182070708       -1.04255174823990       -0.54753839981721
O           -5.76119677559911       -1.52735575490066       -1.40558684240019
C           -6.30782347465553       -0.65128985115906       -2.35652596113079
C           -4.38328802382213       -1.94785459819635        0.44658315864764
O           -4.96416469239837       -3.18432253857476        0.40804676103161
C           -4.64088582566597       -4.09677502530818        1.42302619912210
C           -3.43816720793991       -1.52800946904222        1.36064348327737
C           -2.91837292332538       -0.24040485546300        1.30433303192296
C           -2.18714559830574        2.31474977937838       -1.15224253839226
C           -1.24994596363427        1.20342526851387       -1.67426312306163
C            0.03575659738976        1.15085646767454       -0.92131974067264
N            0.63213699788790       -0.03974563738559       -0.49502025414069
C            2.00229349491658       -0.02904188395972       -0.09330810645045
C            2.96921366911687       -0.45111281025590       -1.22232082992798
C            4.36085437964031       -0.32781013553541       -0.70690686909977
C            5.05220603095866        0.85995060146607       -0.80461382309010
C            6.37174381160539        0.94624749622884       -0.37711774643953
C            6.97565030561229       -0.18596045982800        0.13128478655520
O            8.30296296983554       -0.53375180596600        0.15674910765660
C            9.18754058357694        0.51350975759592       -0.11111176316043
C            6.21818956896028       -1.33722706529230        0.42254662749455
O            6.97335232179420       -2.30583833423717        1.01238544787564
C            6.42360986159406       -3.58935249976743        1.11831514479129
C            4.92321397167498       -1.40622001584711       -0.02639146216510
C           -0.02857398952589       -1.30914420478919       -0.60756250354226
C           -3.91779589958111        3.07227216146660        0.55910532885567
C           -4.57119611113435        2.77961431574417        1.90792418807156
C           -3.46225145309024        4.52732827105312        0.51560939838345
H           -4.61315175754423        0.92066550557724       -1.34890161871364
H           -6.77306597290212        0.22033639109621       -1.88347960541767
H           -7.06965604673519       -1.22502265601489       -2.88290534048908
H           -5.55433354894833       -0.31001269413842       -3.07391895554411
H           -4.88509739827241       -3.69800994393095        2.41599561440384
H           -5.24947457338600       -4.97974356823451        1.22713991146557
H           -3.58175084346678       -4.37402636667324        1.39169694473138
H           -3.09439761238711       -2.19115883317766        2.13791442952899
H           -2.19834925164707        0.06509713354498        2.04604952443019
H           -3.01988736913812        2.43133264209633       -1.84894054288221
H           -1.63059284461668        3.25302276176776       -1.14383190262803
H           -1.76585286717507        0.24698974515066       -1.62740143701333
H           -1.06142940503656        1.41422225379127       -2.74094671729068
H           -0.72659648318359        1.62806447748283        0.79557050267599
H            0.71360190721801        1.97995472674102       -1.05439363275886
H            2.16413299647629       -0.69582380323305        0.76074212374107
H            2.26863055115845        0.98368108063945        0.20941431850162
H            2.79697919418093        0.19184784531149       -2.08544269997298
H            2.75369247835776       -1.47908371115537       -1.51884639494595
H            4.57819763568508        1.70256405518578       -1.28515813271189
H            6.90329868335070        1.87159075609673       -0.51236903886991
H            8.98902609631250        1.34796593232657        0.49853913332266
H            9.08417276099418        0.87616415375485       -1.12739176428653
H           10.18963242472116        0.21094218006670        0.16114051508797
H            7.18642527198661       -4.20618339283980        1.58868399285943
H            5.53724328760795       -3.57119426069775        1.75226719160813
H            6.15851921664695       -4.00790592949882        0.14103116833193
H            4.34439987544065       -2.30579442993804        0.05147230353487
H           -0.15626580188594       -1.63221765343587       -1.65021779764083
H           -1.01341220388357       -1.26354670109387       -0.13201947556172
H            0.55876763531035       -2.06932268407035       -0.08990072882641
H           -4.67724592964281        2.94104349394037       -0.21981920171302
H           -3.82988495850804        2.92225483933862        2.68343307958880
H           -4.93761352358612        1.75611848674194        1.94825728785104
H           -5.41214206110655        3.45223077694347        2.08218076327482
H           -2.67810686478246        4.67529901797695        1.24853186372630
H           -3.09018297605312        4.79779116353660       -0.46951992569719
H           -4.30064186673975        5.18306209043221        0.75026554725887
H           -0.71411199582412        2.85904993458018        2.78434874254557
