72
 energy: -1.722107257196 xtb: 6.6.1 (8d0f1dd)
N           -1.54665443597134        2.83374084942714        2.25230741284864
C           -1.58030122510086        2.16177896080451        1.19108277341642
C           -2.75764453874973        2.06525463219044        0.25844710224899
C           -3.32244590618204        0.65363319156066        0.33110595438200
C           -4.29013727956739        0.23761444532836       -0.58451804826870
C           -4.82751548520488       -1.03478067497454       -0.54099610383248
O           -5.78327682713081       -1.51494803684949       -1.39084260483842
C           -6.33799599739383       -0.63755455714962       -2.33569604876736
C           -4.38996305547955       -1.94522869189582        0.44565457062004
O           -4.97617429173000       -3.17807237041173        0.40878892774605
C           -4.64891640614225       -4.09781035215192        1.41686142972665
C           -3.43277643214697       -1.53249587708484        1.35082385275397
C           -2.90748448731768       -0.24691736605556        1.29320037777107
C           -2.19040068041162        2.30786182730420       -1.16507382361866
C           -1.25523538887651        1.19251345985760       -1.67532165625072
C            0.02208740722041        1.14204043467069       -0.91061038824753
N            0.63471711266744       -0.04470157749588       -0.52434233003244
C            2.00369508434260       -0.03312895917327       -0.12033956764213
C            2.96073813438673       -0.48637550771193       -1.24520606789856
C            4.36367346130030       -0.36474406909521       -0.75655749303883
C            5.06366893907069        0.81755796156169       -0.88393329631140
C            6.37785004900037        0.90976036223808       -0.44412314257080
C            6.98426032135446       -0.19465936385063        0.13580822988656
O            8.32198456212506       -0.44106313201211        0.28138156380312
C            9.15733357592853        0.64804141243594        0.04344372654857
C            6.23531530203081       -1.35961275327157        0.37769682730441
O            6.97835673789737       -2.33298438108688        0.97598926833735
C            6.39080076109614       -3.59643136957797        1.13004794116838
C            4.93810864201785       -1.43512438682849       -0.07384379812046
C           -0.03705297985699       -1.30931303652594       -0.61201342347127
C           -3.90099151408581        3.07429115667077        0.56774789174334
C           -4.54398685287701        2.77847989695412        1.92105347277336
C           -3.43841593057319        4.52778499098718        0.52854318392775
H           -4.62865813367355        0.92982810131425       -1.33739073219667
H           -6.79821637117456        0.23323988039143       -1.85634044074784
H           -7.10505548793445       -1.21169954191910       -2.85387789341197
H           -5.59188918486413       -0.29609262928313       -3.06105521500903
H           -4.88378674679501       -3.70340284796289        2.41283856901168
H           -5.26385380061787       -4.97610200610079        1.22152423102354
H           -3.59164848033110       -4.38141841707413        1.37842159868432
H           -3.08358898886367       -2.19994359547068        2.12144558119193
H           -2.17737415672943        0.05243926138335        2.02756723682102
H           -3.02351489026850        2.41506728803827       -1.86177806089847
H           -1.63753653585567        3.24850441686500       -1.16533779680585
H           -1.78050674235179        0.24129051704465       -1.62842441605271
H           -1.04154352978943        1.39734481615466       -2.73674028634257
H           -0.71038309718986        1.63660670861272        0.74192590349382
H            0.68540634104970        1.98670690510984       -1.01684159377017
H            2.14983262165545       -0.68512786042494        0.74824246506569
H            2.27822855206978        0.98277328065500        0.16680668097817
H            2.78431479006896        0.14754706539227       -2.11418455786088
H            2.73229249189604       -1.51697000351461       -1.51841411448411
H            4.59484061544863        1.65589244845100       -1.37870729034248
H            6.90975715445761        1.83308098609972       -0.60310857567306
H            8.89272080909377        1.47068376402905        0.66352805595167
H            9.11725064265571        0.97261946702535       -0.99333980016688
H           10.15100181138217        0.36614312971242        0.36138435045887
H            7.14285727403264       -4.21738863861922        1.61236809007519
H            5.50728723684364       -3.54155862902988        1.76830516516191
H            6.11072751714662       -4.03611915652549        0.16643568916784
H            4.36108630859059       -2.33654780054712        0.01905188439224
H           -0.18256173390587       -1.63261676401318       -1.65087037801830
H           -1.01316444551433       -1.25489998036152       -0.12024816941369
H            0.55905636849234       -2.06702523812566       -0.10317562558966
H           -4.66681954645341        2.94923491516843       -0.20594645505717
H           -3.79723817881898        2.91331746634198        2.69532124955473
H           -4.91531872219574        1.75670126225772        1.95786685434500
H           -5.38037469735566        3.45410124984745        2.10280488115654
H           -2.64884295447805        4.67685509512246        1.25715985339962
H           -3.07149882023507        4.80261129389406       -0.45724620269088
H           -4.27411358582274        5.18323289604264        0.77136208756170
H           -0.67316385965876        2.82467901438056        2.76752752023572
