72
 energy: 65.295495795800 xtb: 6.6.1 (8d0f1dd)
N           -1.77191241125066        3.05086141156317        2.30308705838231
C           -1.71412617421556        2.23802296667222        1.34870274120997
C           -2.80964712502313        2.09122487854439        0.31645517767854
C           -3.33822964113404        0.66698401336497        0.36540948178655
C           -4.21442216037367        0.20447773393478       -0.61810861183109
C           -4.72985184039744       -1.07876070967720       -0.58542890903743
O           -5.62362887481086       -1.58872874001664       -1.48546789477787
C           -6.12723836399045       -0.73320891731168       -2.47881321528463
C           -4.33907510855582       -1.96418599767637        0.44394817857167
O           -4.88984471242743       -3.21238094503997        0.39792918013465
C           -4.59818478320872       -4.09792290458420        1.44773964117101
C           -3.47259739932015       -1.50537753313694        1.41609602461676
C           -2.98298642472024       -0.20650033465284        1.37413028814347
C           -2.17647110103943        2.37072773831659       -1.07009111519110
C           -1.23609222973240        1.28772414378997       -1.63979258867238
C            0.06261061594678        1.23881290220325       -0.90019111488014
N            0.61211464223745        0.06098815698693       -0.40520349650373
C            1.97651398584736        0.06705096902470        0.04356856207570
C            3.01192828904775       -0.25234475308676       -1.05918468697880
C            4.35762827884921       -0.12490909191088       -0.41612484650108
C            5.04194290741309        1.07585710900576       -0.31853584390748
C            6.38210333602859        1.14657772869288        0.05472238289186
C            7.03422783990953       -0.05323143035487        0.27003428383028
O            7.79377214485140       -0.85364421120784       -0.66288135196316
C            9.06709928762109       -0.27976862124413       -0.95786549224315
C            6.19039486040102       -1.15298413005655        0.71365294354708
O            6.96224726244801       -2.15345689778754        1.23372260364158
C            6.61510090704204       -3.51716382187771        1.04387502822637
C            4.89848824538675       -1.21512018582843        0.26419658689460
C            0.02283365137900       -1.24792276098059       -0.60773505159599
C           -4.01256115438907        3.06040986657337        0.51723810925974
C           -4.72671568409738        2.78183477361796        1.83795790971806
C           -3.60422904663957        4.52733509132374        0.44567206805940
H           -4.51395962122196        0.87371084242299       -1.40820744408745
H           -6.62561020420453        0.14343025276528       -2.05029427617848
H           -6.85407380802390       -1.31877188383595       -3.04035953582997
H           -5.33660685053175       -0.39827995530250       -3.15643118574523
H           -4.92711762139193       -3.69779492348818        2.41314276685697
H           -5.16333036909180       -5.00534383814952        1.23916243170520
H           -3.53076154884141       -4.33597795945985        1.47766973986632
H           -3.16382667356697       -2.14845428512547        2.22488100405399
H           -2.32515666933013        0.12246727194163        2.16166249051343
H           -2.99396772789702        2.53867521747994       -1.77452134923185
H           -1.59782862460370        3.29216737822178       -1.00946987525763
H           -1.70523263773782        0.30555361822260       -1.60626748692877
H           -1.13353629372384        1.53968296531459       -2.71406956618149
H           -0.84423207725810        1.58282173281933        1.12600697554636
H            0.79830050525461        1.99195774609211       -1.12864180742303
H            2.13409212105025       -0.65272556555593        0.85870133994073
H            2.20618463073875        1.05620400753644        0.41967484522582
H            2.86939503483972        0.42782070663510       -1.90061985427091
H            2.83821877098339       -1.26242319314157       -1.43730662201183
H            4.54536588424488        1.94463667991087       -0.71105640473592
H            6.94403985707028        2.05427309405953        0.04911070923834
H            9.22805131475029        0.28389986700033       -0.12175148615182
H            8.94685819859549        0.32950683847708       -1.79965789347945
H            9.97099902570423       -0.86209970960747       -0.92017085524246
H            7.43525392342578       -4.11051127712529        1.44470367694420
H            5.71305655551445       -3.76281728621049        1.62294045217294
H            6.43512941227269       -3.81272638868145        0.00095560670125
H            4.37460081005593       -2.14279638555507        0.24603482334515
H           -0.04791057904222       -1.54115562263996       -1.66423711911078
H           -0.97993660683362       -1.27278876577578       -0.17756607794984
H            0.62598832707079       -2.00328104093572       -0.09969986871336
H           -4.72937008689355        2.88031555147529       -0.29472054295045
H           -4.03504589570361        2.96799890573530        2.64628512216988
H           -5.06667770463363        1.74910321603941        1.88843787660798
H           -5.59480164560623        3.43185057142798        1.95304137404888
H           -2.85375917471957        4.70981297579106        1.20205482708683
H           -3.20880509891724        4.78005147451877       -0.53444278800810
H           -4.46818044060573        5.16553035789509        0.63236092586788
H           -0.97427893441105        3.04794110677226        2.92017365819571
