72
 energy: 47.754584532456 xtb: 6.6.1 (8d0f1dd)
N           -1.95476540869994        3.18560062901349        2.32623576477394
C           -1.83076855375922        2.31741690894931        1.42800998636041
C           -2.84878855821453        2.10895144919162        0.33324552569467
C           -3.32394052111347        0.66406708452836        0.36669347592861
C           -4.14560028995606        0.17458408342656       -0.65065440326969
C           -4.64443879230831       -1.11422313770883       -0.62659446798901
O           -5.48345151403778       -1.64575970758703       -1.56011547533382
C           -5.94831508677687       -0.82145609983545       -2.59945464294047
C           -4.29018267463061       -1.97795438855492        0.43439132007644
O           -4.81215509759645       -3.23689631615876        0.37466547545811
C           -4.56509356663193       -4.11105003948368        1.44333471017997
C           -3.48904698086970       -1.48928857290372        1.44895214722317
C           -3.02828204029247       -0.17850611847247        1.42328231830358
C           -2.13888402071873        2.41210773186013       -1.01420454071499
C           -1.21205354472958        1.30707681820826       -1.55674823759617
C            0.09800523650559        1.22524614401576       -0.87724977299140
N            0.59659962699149        0.10215675748123       -0.27685812912548
C            1.94835290798282        0.14799027391898        0.19151803566573
C            3.03488418119366       -0.08174438143052       -0.87490406216587
C            4.37032039461499        0.03558551064217       -0.17161628586635
C            4.95894796208260        1.27580676437701        0.04161366312730
C            6.29291890605710        1.40196762826738        0.38113430908815
C            7.02819355337351        0.26421837334603        0.64510159107266
O            7.15642346885939       -1.05938933786749       -1.45912233885495
C            8.37857000267165       -0.96260931020062       -1.42169851033277
C            6.36649689933053       -0.96620442155938        0.73952344608121
O            7.12983689127899       -1.95938595125395        1.26140167567951
C            6.79362544283770       -3.31817486970594        1.01178838670257
C            5.06540341546233       -1.08599407597247        0.27222961709645
C            0.05953267272173       -1.20610334046183       -0.57049491490079
C           -4.09350384734627        3.04006817182986        0.47364197490477
C           -4.86719612485286        2.76584176036774        1.76238444248188
C           -3.74219433920200        4.52370277502349        0.38007138093393
H           -4.41366334475502        0.82810454568917       -1.46441915284396
H           -6.48557234148190        0.05558107837283       -2.22075859687658
H           -6.63532313926365       -1.43778119112917       -3.17778648046436
H           -5.12854253859767       -0.49271552559033       -3.24554047736724
H           -4.96080242212280       -3.71026489266667        2.38097231963148
H           -5.09158100911756       -5.03202277009917        1.20397679524905
H           -3.49581175555724       -4.32245663673856        1.56348096218484
H           -3.23658745820721       -2.10780283285349        2.29736653175764
H           -2.45035667636537        0.17017680880666        2.26599781861125
H           -2.90068903154988        2.59469684173904       -1.77443327716305
H           -1.55558224155844        3.32636641038637       -0.89949502362339
H           -1.73522894635134        0.35288684851152       -1.53394688012552
H           -1.01788638443468        1.56571300329000       -2.60595025747237
H           -0.96575749506574        1.65572607432233        1.32844449736297
H            0.71918489434870        2.10445717118236       -0.86083524756184
H            2.06767611122761       -0.60903620668173        0.97025009886759
H            2.12757206535171        1.13287521152170        0.61234844991104
H            2.93497298139780        0.64396735621794       -1.69500338880513
H            2.91155069307011       -1.07000312439091       -1.31914562876460
H            4.46092612760468        2.18114199463795       -0.17931026071217
H            6.73182510348696        2.38285091605318        0.43597308469478
H            8.07965162033043        0.05284210355133        0.43274028822389
H            8.84100744169682       -0.14817700074377       -2.03866929978797
H            9.15994114358815       -1.74738291883590       -1.34071226576630
H            7.63092214785488       -3.92188305551280        1.36486075365098
H            5.90319030965369       -3.63287073477763        1.55581310038287
H            6.62525482149409       -3.54057769691837       -0.05121214591752
H            4.64589998394023       -2.06651664566603        0.15969151037492
H            0.01859075933577       -1.43182450262582       -1.64479011207278
H           -0.94073018167408       -1.28778758557632       -0.15363407227644
H            0.68118869814432       -1.95834479165371       -0.08926697087481
H           -4.76269398119485        2.80339594591751       -0.36255478494249
H           -4.24833123346863        3.00015222350508        2.62135259958799
H           -5.17652484201390        1.72241324010574        1.81101946449112
H           -5.75808595583951        3.39007376684779        1.80068844252686
H           -3.02850066999220        4.78093818635829        1.15569181649672
H           -3.33163469664992        4.77449393211287       -0.59498638221045
H           -4.64159163211591        5.12057271055592        0.52032994691614
H           -1.20734437421799        3.24004615917784        3.00901503888249
