72
 energy: 120.429792399841 xtb: 6.6.1 (8d0f1dd)
N           -1.88284079113008        3.10172660770313        2.35803966856865
C           -1.78442612383678        2.29074971027120        1.40633273845562
C           -2.83544136468234        2.10617068054681        0.33599381986243
C           -3.33279667404400        0.66751977059427        0.37339047273131
C           -4.17850504649473        0.19115486955284       -0.63156602173610
C           -4.68676641218357       -1.09517208798500       -0.60423657886159
O           -5.55161961120504       -1.61549304514839       -1.52182079718344
C           -6.03623458307896       -0.77572516610639       -2.53887418446673
C           -4.31562139146351       -1.97127847081154        0.44334507527639
O           -4.84860191050764       -3.22329302411061        0.39051704900427
C           -4.57596472648642       -4.10321134977490        1.45309993304940
C           -3.48826786434690       -1.49483526108020        1.44157368058493
C           -3.00976509888663       -0.19128347217336        1.40654892554163
C           -2.16298255469583        2.39713543323660       -1.03111545829607
C           -1.22874272084010        1.30093313023827       -1.59127791102955
C            0.08012560637854        1.21299123891524       -0.88526506935134
N            0.59801864756732        0.08432495728011       -0.33312208597512
C            1.96100113930874        0.11335763182690        0.11741530042386
C            3.02782727407737       -0.16181001954918       -0.95854527446826
C            4.37969316048218       -0.04297022842911       -0.28198340175954
C            5.03567091519897        1.18294479620353       -0.15878080269664
C            6.34115756659829        1.29867914622385        0.27210980027227
C            7.08495490487963        0.17976553156888        0.57547102895225
O            7.34555221327491       -0.90679982919455       -1.16349208250721
C            8.70069978341986       -0.62963805001638       -1.18487351156095
C            6.32124496850173       -1.03342266964383        0.80158650050258
O            7.02987755528820       -2.06585651599986        1.32202224182453
C            6.70796004181127       -3.42632522293109        1.02833110134385
C            5.00639445861300       -1.13263081856470        0.31495526071661
C            0.03590809477676       -1.22434714340228       -0.58944887190917
C           -4.05788499437479        3.05232552943704        0.49878422182807
C           -4.79932552109912        2.77547003713161        1.80432762454381
C           -3.67376330589304        4.52602448487209        0.41543947456381
H           -4.46188387228308        0.85275798560680       -1.43369762800744
H           -6.55355047819666        0.10214999189082       -2.13553398298205
H           -6.74361823962177       -1.37612377679392       -3.10890720955268
H           -5.23105363941982       -0.44593303500611       -3.20115654866600
H           -4.94528984907943       -3.70315635774561        2.40127811361100
H           -5.12064080863066       -5.01847392317622        1.22763204968325
H           -3.50890437795028       -4.32605006260150        1.52328494840330
H           -3.20133473699107       -2.12898586038969        2.26460952385066
H           -2.38724317433021        0.14385433010433        2.21951265756269
H           -2.95334753478271        2.57858975790509       -1.76134307318435
H           -1.58672889885610        3.31736483742550       -0.94464364521171
H           -1.71910438825007        0.33159786927745       -1.56991042486799
H           -1.07514130315562        1.56369377535949       -2.64786343972870
H           -0.91615132634397        1.60563995072948        1.26559136297785
H            0.76092307471788        2.04340014468049       -0.98352774344849
H            2.08312064787057       -0.63300653724572        0.90531752771470
H            2.16607308022306        1.09628642017727        0.51881809083562
H            2.91267609817696        0.54012613318406       -1.79202669584841
H            2.88095812715288       -1.15799081709063       -1.38291222234814
H            4.51577619980275        2.06670423940620       -0.47396990974665
H            6.88465858477561        2.21832023562237        0.31438363735225
H            8.63850838556954       -0.30022790102398       -0.03323310115232
H            8.80107191258724        0.09287572341923       -1.99115666319335
H            9.62155562510720       -1.28437002065046       -1.28717670213199
H            7.54652370895687       -4.03053409130408        1.38734873502135
H            5.81174897646670       -3.73059489119060        1.58172699995797
H            6.54716947613788       -3.67516627516641       -0.03734418023443
H            4.53330710883907       -2.09796747026974        0.24120362646010
H           -0.01266264863650       -1.48322661859138       -1.65598578550050
H           -0.96610938533505       -1.28348674540783       -0.17007751024392
H            0.65194058207734       -1.97238391817883       -0.09335441966110
H           -4.75087642455776        2.84132630882979       -0.32663820571593
H           -4.14129799059156        2.98396889753469        2.63707991040287
H           -5.12628538610750        1.73807820206203        1.85204120284998
H           -5.67977976160170        3.41234933516862        1.88142858649803
H           -2.94120679479774        4.74803201934288        1.18107071874433
H           -3.27083653582584        4.77760490765778       -0.56215774467738
H           -4.55464768155999        5.14549518581684        0.57795916008064
H           -1.10542535017164        3.12676800871908        3.00890877988148
