72
 energy: 28.212272633852 xtb: 6.6.1 (8d0f1dd)
N           -1.92362089498637        3.13888249372556        2.31129557449951
C           -1.79715330133469        2.30544346232185        1.37963527072787
C           -2.83477773844781        2.09995573090429        0.30815439334862
C           -3.31181493624583        0.65691395836906        0.35027037793683
C           -4.12777158752476        0.16453908637632       -0.66761068907053
C           -4.62034194641079       -1.12585975484505       -0.64397519837661
O           -5.44106793739100       -1.66771241906118       -1.58895537113135
C           -5.88686012804727       -0.85257953005450       -2.64345310386786
C           -4.27752030924260       -1.98495913798957        0.42183868000756
O           -4.79921643478428       -3.24173646945843        0.35753145743606
C           -4.57032031922076       -4.11908208911972        1.42670192327004
C           -3.47275628400746       -1.49532671860526        1.43233660281400
C           -3.00665701852445       -0.18602571138040        1.40232234126844
C           -2.13761487424103        2.39834993625227       -1.04738838587547
C           -1.19433943764121        1.29904081312796       -1.57200682114751
C            0.08746602321866        1.23773731826503       -0.82899298197075
N            0.63871277356629        0.10089226893299       -0.30491491429270
C            1.96849626609610        0.16012123336734        0.22780901384618
C            3.06377615930235       -0.07931948999715       -0.83371779636826
C            4.44155304575864        0.04453199309851       -0.22660614884758
C            4.99935162423351        1.31155979342411       -0.04415333818358
C            6.29587156738208        1.43653041049896        0.44881210618167
C            7.03035413669130        0.32173299568312        0.76841366754086
O            7.08842928930927       -1.27272422640169       -1.70085807314231
C            8.28534792459631       -1.15068613513590       -1.61393279117099
C            6.42484385179582       -0.93245518127985        0.75215674013810
O            7.20395066661546       -1.92677095857153        1.26312923790682
C            6.84290130838080       -3.26182176386644        1.00882793440301
C            5.14225017768077       -1.06819789651905        0.23700157284357
C            0.08358776667024       -1.19815630416744       -0.57314474921319
C           -4.08131780220671        3.02576652142639        0.45836256996546
C           -4.84837412038979        2.74545054101573        1.74852861001625
C           -3.74210257070416        4.51357562969380        0.37622067964520
H           -4.38288917297579        0.81303989551777       -1.48704668158557
H           -6.43507176290119        0.02367689462706       -2.28055052551600
H           -6.56190902278497       -1.47686536087858       -3.22710420407754
H           -5.05440119414644       -0.52621181958076       -3.27705624053749
H           -4.96407348038589       -3.71556225645979        2.36428892428337
H           -5.10654555452085       -5.03290419941791        1.17878621798808
H           -3.50480079374017       -4.34426865654890        1.55014047236662
H           -3.21511972386465       -2.11740982901041        2.27477519925793
H           -2.41943752623036        0.17193245902994        2.23369766388302
H           -2.90745437820312        2.56278821523127       -1.80436747471822
H           -1.56514008801637        3.32148674138879       -0.94449397683844
H           -1.70920782755682        0.34041418397007       -1.55183220949956
H           -0.98898957658050        1.54043769488095       -2.62890065786278
H           -0.90709459995885        1.67554943433750        1.23582142498598
H            0.68460677227927        2.13010933720117       -0.76792864976167
H            2.07402288446493       -0.59281762990769        1.01236808052408
H            2.12390476127187        1.14343287433447        0.66941454477863
H            2.92969273603843        0.67116743033678       -1.62578917807731
H            2.93089428390942       -1.07341602673639       -1.26232613489165
H            4.38017065214218        2.19125613727363       -0.19361080508017
H            6.69679272977406        2.41982874068060        0.63194093786494
H            8.10770261821571        0.28566185329304        0.80146412840589
H            8.84886012799232       -0.28338867546769       -1.93649044522061
H            8.86605820565383       -2.02425992868198       -1.39776438188923
H            7.68415792247813       -3.86119472597236        1.35428545807795
H            5.94546754739431       -3.55514325273797        1.55667208736495
H            6.67015020758366       -3.44773251822075       -0.05658823545350
H            4.71160508156175       -2.04991354892595        0.12898434636866
H            0.03551851990149       -1.40354928552342       -1.64647166425411
H           -0.91659532678218       -1.27471244713058       -0.14569726979839
H            0.70985870682024       -1.95316582542318       -0.10382181853788
H           -4.74983531805845        2.78437831944751       -0.37771289124498
H           -4.23174660913517        2.99028639697861        2.60746927822091
H           -5.13635265637796        1.69825281987168        1.80834430503584
H           -5.75005729640022        3.35485956864816        1.77357856865866
H           -3.05105772824370        4.78419249249311        1.16759280637673
H           -3.30054102366176        4.77606034835410       -0.58138705780769
H           -4.65448038911511        5.09399753415091        0.49805877389179
H           -1.13818531029784        3.19230517436876        2.95891777914119
