25
 energy: 0.000000000000 xtb: 6.6.1 (8d0f1dd)
C            3.23720163006194        1.16630919979326        0.08434469647475
N            2.29877817382611        0.07527477071623        0.03981603040599
C            2.58028210190900       -1.21425402444508        0.03006176031096
N            1.43813958087363       -1.93419271955128        0.00098261760884
C            0.39035688448383       -1.05887472636071       -0.00790371836672
C            0.93510056364412        0.21347819449412        0.01709077491437
C            0.09450143893243        1.40504303904423       -0.00410947031874
O            0.49712751527797        2.54126714362870       -0.00342325688240
N           -1.25076640035757        1.06271879480407       -0.03085478223738
C           -2.21907211982101        2.15522099834493       -0.05001256985998
C           -1.81739487048744       -0.20012725993278       -0.04692818574614
O           -2.99983886758376       -0.37846417018721       -0.07008878229737
N           -0.92618586207120       -1.30210215599479       -0.03682761578324
C           -1.46982264913417       -2.64643102187190       -0.06029820460571
H            3.71247264356769        1.21471455160235        1.06488849150277
H            4.00791497605742        1.03430808813993       -0.67357694370751
H            2.69910007168542        2.09770118228144       -0.09130154882931
H            3.56654120610678       -1.63682992603973        0.04233140067262
H           -1.67107961066214        3.09322851271934       -0.02552706933167
H           -2.82428953597071        2.09428624779827       -0.95318082946668
H           -2.87644029173232        2.07745725625962        0.81450067533302
H           -1.17061996399332       -3.19584890659852        0.83242232437030
H           -1.14560257411436       -3.17511610292205       -0.95688275822323
H           -2.55549792440841       -2.55659984320617       -0.07459039797972
H            1.38130855184625       -2.94313852034425       -0.01389874181052
25
 energy: -3.890677331148 xtb: 6.6.1 (8d0f1dd)
C            3.24531148174559        1.18325614771756        0.10161221750467
N            2.31405312660785        0.08382053826453        0.04521681297509
C            2.59779958219838       -1.24813754807854        0.01968765897522
N            1.42299488296008       -1.95412773433252       -0.01613041262945
C            0.39423726101600       -1.06801396300033       -0.01881338031010
C            0.93442962832338        0.20870505609054        0.00519026882563
C            0.10903245247325        1.38385202188138       -0.01173503297778
O            0.51063940325224        2.54728881232075       -0.00695317577301
N           -1.25435513559114        1.04541594489849       -0.03044387876574
C           -2.20980708861416        2.14642064386312       -0.04081308121898
C           -1.82274485732600       -0.20351916664587       -0.04539056504068
O           -3.02011948260673       -0.38037697060115       -0.06145057008642
N           -0.93827272002827       -1.30802454147675       -0.04119477962229
C           -1.48558343441948       -2.64715516325774       -0.06039942695783
H            3.68662058480023        1.43297562192413        1.10275791582925
H            4.05567993179041        1.00263678760089       -0.60797246939565
H            2.69730117144929        2.08589740154290       -0.15444628582313
H            3.57206060961285       -1.68199511231596        0.01097130141545
H           -1.64596275498775        3.07641289221589       -0.01311942698229
H           -2.81780101424561        2.09960075040260       -0.94378757557424
H           -2.86588276296503        2.07466790784804        0.82599596850805
H           -1.18364014628893       -3.20029081805250        0.83105040473323
H           -1.16526409362262       -3.18113574429241       -0.95704871769387
H           -2.57072112120921       -2.55072554533596       -0.07048929842774
H            1.35220916361168       -2.95841961700907       -0.03526057534014
25
 energy: 4.006640838464 xtb: 6.6.1 (8d0f1dd)
C            3.24925830493810        1.20540643407208        0.12366349033494
N            2.33578953609942        0.08826731133619        0.06149046557788
C            2.61352235904947       -1.28702064824139        0.00454471760215
N            1.40499508291185       -1.97289645183932       -0.04383548962661
C            0.39936488561853       -1.08030001903127       -0.03589505133282
C            0.93683780293599        0.20024089217075       -0.00314573442756
C            0.13093133310477        1.35077093427267       -0.01808439531265
O            0.51859154021212        2.53421940249898       -0.01353036082678
N           -1.25715793650161        1.02479232188994       -0.02808878984885
C           -2.19359677215041        2.13800184636494       -0.02644183901317
C           -1.82187699345055       -0.20794567940440       -0.04080586467673
O           -3.02817321992244       -0.38342560804147       -0.04652338772370
N           -0.95045490225825       -1.31466263467580       -0.04846540197644
C           -1.50639419728778       -2.64771830829767       -0.06072646333798
H            3.61212986436387        1.74993784851483        1.15154821435830
H            4.13849290667593        0.94079109720752       -0.48127278013240
H            2.69581081787675        2.06694549992859       -0.27914993963713
H            3.57150118525652       -1.73971307555550       -0.04784707347184
H           -1.60942634752309        3.05686641559517        0.00701837254548
H           -2.80595071686855        2.11009030844931       -0.92816914236705
H           -2.84816068974298        2.07112554247051        0.84249938049194
H           -1.20490112130280       -3.20703363870684        0.82911736195842
H           -1.19764540940910       -3.19147907097297       -0.95745496657509
H           -2.59124822815932       -2.54147475319674       -0.06359403783184
H            1.31997558346994       -2.97475736463615       -0.06981738860314
25
 energy: 13.951443080174 xtb: 6.6.1 (8d0f1dd)
C            3.24373810159372        1.22987921494427        0.14206375305804
N            2.34812691933712        0.08981603605904        0.07648615420193
C            2.61837980176032       -1.30558327498053       -0.00519803358376
N            1.39948423995452       -1.98359164079655       -0.06835738045159
C            0.40127733062035       -1.09240916644745       -0.04898767049650
C            0.94061317662692        0.19005850589817       -0.00336820051457
C            0.14320551932381        1.33353226873987       -0.02206580368647
O            0.51873373703475        2.52085377884726       -0.02611910934663
N           -1.25662434318424        1.01366803999640       -0.02776148642739
C           -2.17909189800419        2.13401344265389       -0.01655373634961
C           -1.82010100259213       -0.21479060702527       -0.03619282231382
O           -3.02831620757531       -0.38961002699926       -0.03267037453203
N           -0.95496111078335       -1.32295384941389       -0.05455093514314
C           -1.52368619544022       -2.65123365730689       -0.05782679050458
H            3.53178216496955        1.96460514877475        1.16916119936606
H            4.20438324673316        0.90336001523243       -0.34252847637383
H            2.71801112033224        2.05142734732003       -0.38913020895951
H            3.56659859409366       -1.77600088841798       -0.11023584867765
H           -1.57888480654392        3.04258327578595        0.02194935667368
H           -2.79326212621294        2.11956284329260       -0.91729225667344
H           -2.83113560920362        2.06802422743690        0.85422307667696
H           -1.22594582756553       -3.21240885990995        0.83248284188850
H           -1.23007620888060       -3.20468473470539       -0.95411884397685
H           -2.60836682862391       -2.53281264291491       -0.05351871617656
H            1.30833288016632       -2.98627619389157       -0.10285579152995
25
 energy: 18.312798683206 xtb: 6.6.1 (8d0f1dd)
C            3.23816522508832        1.24415013845293        0.15361156850994
N            2.35228314302597        0.08923544043676        0.08586807166362
C            2.61656302223286       -1.30863793958444       -0.00852105500997
N            1.40190101327980       -1.98733412393641       -0.08513635957148
C            0.40014332493812       -1.10119801561393       -0.05643085678223
C            0.94384898397077        0.18066796420927        0.00244910344737
C            0.14748979516415        1.32819519221120       -0.02506082671255
O            0.51564188887892        2.50894078042092       -0.04004969290544
N           -1.25414154269148        1.00912672077030       -0.03058882467470
C           -2.16937544593021        2.13237803638414       -0.01376659459178
C           -1.81879864951999       -0.22144948367932       -0.03364772084384
O           -3.02477088843664       -0.39458888531524       -0.02301155996058
N           -0.95494098038890       -1.33036974449633       -0.05891207847423
C           -1.53553815478549       -2.65574925955903       -0.05279323972807
H            3.48045495605115        2.07895646874296        1.15883968568769
H            4.22491211554187        0.90129009601722       -0.23660240345836
H            2.76184313738015        2.03016422006937       -0.43774519919977
H            3.55730453849748       -1.79027164481382       -0.16621291815249
H           -1.56061851521774        3.03431116718676        0.02821806665548
H           -2.78325252617089        2.12641544291811       -0.91412585719347
H           -2.82008901159688        2.06582536632179        0.85752975301911
H           -1.24223467463089       -3.21533946610780        0.83941451831719
H           -1.25498163360438       -3.21733406939716       -0.94757536945857
H           -2.61983307565817       -2.52659691149711       -0.04361607177117
H            1.31023862251861       -2.99175888796920       -0.12510024266443
25
 energy: 17.940859242289 xtb: 6.6.1 (8d0f1dd)
C            3.23617655864858        1.24716247272843        0.15945712580804
N            2.35016891839032        0.08914274855310        0.08909995895202
C            2.61222832965206       -1.29882821212891        0.00153938256999
N            1.40905394865205       -1.98350666009427       -0.09530144384511
C            0.39729480343994       -1.10343235564357       -0.06143282120487
C            0.94541519833077        0.17595747011011        0.00735556620317
C            0.14660741305833        1.33189163203694       -0.02744212878082
O            0.51320587730308        2.50297009374002       -0.04707605982115
N           -1.25066752334017        1.00926532664519       -0.03263471071006
C           -2.16674786522874        2.13159299327734       -0.00928042561435
C           -1.81854495768410       -0.22551194048255       -0.03239062565180
O           -3.02133073070410       -0.39548653219191       -0.01441788678295
N           -0.95217041783251       -1.33411895404382       -0.06376458186725
C           -1.53898374803113       -2.65892132516751       -0.05139471139435
H            3.42912448483358        2.12462315109689        1.14118770131574
H            4.23260308222391        0.88699795395265       -0.14167155227412
H            2.81450957776139        1.99812310668228       -0.50119697135566
H            3.54541766546930       -1.78125025544195       -0.20406180086126
H           -1.55901209546570        3.03272933222944        0.03560551480659
H           -2.78071475427647        2.13098779975689       -0.90899944245875
H           -2.81659452636926        2.06161200413261        0.86208419895034
H           -1.24666527732072       -3.21619598700001        0.84171583648168
H           -1.26590446506731       -3.22305845265335       -0.94530633111892
H           -2.62266985569883       -2.52446421683806       -0.03916790507583
H            1.32041502719223       -2.98925259108404       -0.13547199012303
25
 energy: 13.913931404957 xtb: 6.6.1 (8d0f1dd)
C            3.23628841030774        1.24637794217109        0.15895849499769
N            2.34358632998304        0.09282548471397        0.08661847544817
C            2.60905703420580       -1.28354947581226        0.01664496374465
N            1.41461400664113       -1.97486663259732       -0.09919783926824
C            0.39436814696349       -1.09939209731669       -0.06424369004072
C            0.94308990175608        0.17807072660640        0.00951335532973
C            0.14193296069116        1.33796553269560       -0.02779319295414
O            0.51065409475348        2.50432405889370       -0.04948868242688
N           -1.24948936270996        1.01022043495004       -0.03266743465921
C           -2.17012431131640        2.13027342441953       -0.00609888203700
C           -1.81964305870628       -0.22691275743704       -0.03100695564311
O           -3.02021056253954       -0.39454116658852       -0.00781473427392
N           -0.95002620697091       -1.33398186110658       -0.06701500765464
C           -1.53623632708599       -2.66006692906267       -0.05179432595294
H            3.38509976844035        2.10954262165133        1.11317127419053
H            4.23851565169508        0.86492223775530       -0.06717341706447
H            2.87082197279450        1.97199787651561       -0.54895087003387
H            3.53693028240899       -1.75898742932371       -0.22950538027159
H           -1.56670762949434        3.03410369321260        0.04042639648710
H           -2.78438490089292        2.13074617838815       -0.90545830129346
H           -2.81950052321119        2.05651486241655        0.86525493891756
H           -1.24153580088990       -3.21533353486763        0.84135296077906
H           -1.26445313035005       -3.22374079671123       -0.94542748411677
H           -2.61957911853390       -2.52626478218641       -0.03765663608586
H            1.32914703999707       -2.98121900920792       -0.13361412997036
25
 energy: 8.525901850847 xtb: 6.6.1 (8d0f1dd)
C            3.23851370084765        1.24727809210228        0.16227994689013
N            2.33704927908527        0.09915230933459        0.08885819355225
C            2.61008057197118       -1.27141491211142        0.03658100247522
N            1.41779775595268       -1.96672520182995       -0.10023137603025
C            0.39394625092872       -1.09319909215420       -0.06587093862269
C            0.93949257636274        0.18408239645808        0.01101405241093
C            0.13651003304813        1.34322435536354       -0.02658385286826
O            0.50870595518015        2.51024037654198       -0.04642371328102
N           -1.25071617875995        1.01140888020676       -0.03097288435234
C           -2.17586200235493        2.12928450349502       -0.00331202938869
C           -1.82052103984945       -0.22633411924942       -0.02991567433641
O           -3.02060444106032       -0.39406244456191       -0.00330640887444
N           -0.94835747958056       -1.33179572878529       -0.06965158306525
C           -1.53091825656540       -2.65950288050513       -0.05379844639544
H            3.34573957553778        2.07449137889692        1.08266142504828
H            4.23710319435518        0.84014435667311       -0.00670679803763
H            2.92274932923459        1.95001694702343       -0.60106150656482
H            3.53364693855921       -1.73630369309195       -0.25067165405415
H           -1.57598049590446        3.03610090024094        0.04382845088228
H           -2.79028090958734        2.12831588213564       -0.90263733052676
H           -2.82482127320134        2.05241972791704        0.86810774362449
H           -1.23297314361250       -3.21393146041534        0.83893222513154
H           -1.25750889027977       -3.22208122715356       -0.94766339665527
H           -2.61433478628046       -2.52872121654797       -0.03832791559509
H            1.33375840390977       -2.97305952781132       -0.12809363521933
25
 energy: 6.307632876776 xtb: 6.6.1 (8d0f1dd)
C            3.24156063161646        1.24803747903419        0.16139622241563
N            2.33451335498885        0.10217457516913        0.09010153585987
C            2.61350189326302       -1.27101942837445        0.04734245081868
N            1.41711936985483       -1.96498041724496       -0.09914086627566
C            0.39572906844136       -1.09032830490701       -0.06644928322188
C            0.93765628051432        0.18788522448519        0.00992014184283
C            0.13423404243897        1.34398847800719       -0.02534403266186
O            0.50806539739330        2.51357306258969       -0.04200365703798
N           -1.25281811653128        1.01227435000983       -0.02962991170824
C           -2.17904318668856        2.12960338161147       -0.00308192777022
C           -1.82021175792694       -0.22481154442247       -0.02962070850134
O           -3.02105377747470       -0.39461609846964       -0.00296861225711
N           -0.94782009593531       -1.32979028926970       -0.07033877186215
C           -1.52760851290263       -2.65806707358642       -0.05473769336536
H            3.32569272168361        2.05978291703972        1.06074009978175
H            4.23638672831858        0.83445394287845        0.00987219130553
H            2.94275677458818        1.93564530165796       -0.60535328263208
H            3.53396832196049       -1.72765411449059       -0.26113775479642
H           -1.57961556457549        3.03720999937462        0.04337267527950
H           -2.79350506354429        2.12653516631145       -0.90249143331010
H           -2.82783523214334        2.05242170124124        0.86842033177263
H           -1.22806696494104       -3.21254338626039        0.83777463877308
H           -1.25237654824211       -3.22039422262008       -0.94877703217656
H           -2.61129599380971       -2.52947368515526       -0.03899169637808
H            1.33228089759002       -2.97087841243726       -0.12183972774720
25
 energy: 6.112795535822 xtb: 6.6.1 (8d0f1dd)
C            3.24493203163343        1.24809368014695        0.16315299644296
N            2.33326854838669        0.10342392211563        0.09423216865308
C            2.61725478469686       -1.27601787701596        0.05882394098247
N            1.41478526532783       -1.96639809391298       -0.09800432191549
C            0.39791843388777       -1.08949809980007       -0.06743854492973
C            0.93654964437459        0.19000076727337        0.00754690801115
C            0.13330049905928        1.34335199302692       -0.02325690226670
O            0.50769313139696        2.51587979678288       -0.03449586336796
N           -1.25532193370646        1.01318515014855       -0.02724737808543
C           -2.18132258678802        2.13043005901191        0.00002246839119
C           -1.81971619405439       -0.22319358416578       -0.02934516811832
O           -3.02194218344238       -0.39574413184226       -0.00359533481063
N           -0.94785772729238       -1.32823214302478       -0.07163304156759
C           -1.52528286774776       -2.65664951942025       -0.05751094601531
H            3.30070516463227        2.07749231229834        1.05123569583053
H            4.24607586224110        0.82031980082856        0.02868270013653
H            2.95769226606950        1.92189779666532       -0.63547237633663
H            3.53440060525700       -1.72495187209138       -0.27009460197204
H           -1.58161487584007        3.03802062923709        0.04623397075211
H           -2.79639737545935        2.12645871975573       -0.89911466927225
H           -2.82946352166012        2.05279977362251        0.87197293358098
H           -1.22440171323326       -3.21218605418934        0.83424379707562
H           -1.24852161019952       -3.21788920565607       -0.95227456568451
H           -2.60924482372438       -2.52987646214010       -0.04152785205200
H            1.32872584412144       -2.97168875548289       -0.11810211731474
25
 energy: 6.785520827719 xtb: 6.6.1 (8d0f1dd)
C            3.24449956604759        1.24712164882497        0.16527083367067
N            2.33403062044301        0.10083821675080        0.09753056392630
C            2.61756100280858       -1.28049337876311        0.05942394123619
N            1.41377217278823       -1.96907778284745       -0.09544561787477
C            0.39843608419333       -1.09119801144958       -0.06580652336010
C            0.93778375250402        0.18823457153720        0.00819550899339
C            0.13434601181104        1.34226227830880       -0.02204926942436
O            0.50869120285913        2.51405765377282       -0.03218136215368
N           -1.25478491567478        1.01361248497533       -0.02755830375498
C           -2.17985048438730        2.13120703613509       -0.00124219919733
C           -1.81906838216778       -0.22293918612429       -0.03024187746534
O           -3.02132389662310       -0.39601363577101       -0.00704097261832
N           -0.94781212099167       -1.32835072247158       -0.07096716892900
C           -1.52597779551875       -2.65641112119863       -0.05787017564433
H            3.31459911515602        2.08235289396775        1.05222569896458
H            4.23677511887403        0.83275632230183        0.00841689474958
H            2.94583721274170        1.92337041498387       -0.62236563780295
H            3.53481972059409       -1.72842122226396       -0.26737537160117
H           -1.57936758111914        3.03808431072044        0.04459355341849
H           -2.79479775431794        2.12691103484212       -0.90045213144386
H           -2.82823002855605        2.05459503870735        0.87062507790915
H           -1.22627154369340       -3.21228471449537        0.83399578951026
H           -1.24889275769147       -3.21749903542696       -0.95259671026934
H           -2.60997550116413       -2.52930594547320       -0.04282196530341
H            1.32741584902136       -2.97438054737131       -0.11722867938836
25
 energy: 6.795433378125 xtb: 6.6.1 (8d0f1dd)
C            3.24285808106570        1.24816367703302        0.16519010662970
N            2.33344784908098        0.10032567722801        0.09745602381994
C            2.61714144497451       -1.28147034269382        0.06078987500459
N            1.41366741568347       -1.96979289110187       -0.09415095376948
C            0.39817666436174       -1.09195702122207       -0.06548773799829
C            0.93819050141404        0.18727455384133        0.00703188517675
C            0.13424834773145        1.34227477579852       -0.02196722420281
O            0.50865436882018        2.51301625342432       -0.03175362946259
N           -1.25442612633071        1.01384701700431       -0.02806133410321
C           -2.17917572456131        2.13144363377532       -0.00171575057590
C           -1.81911704844300       -0.22319098704784       -0.03080219534467
O           -3.02122563502984       -0.39629305905637       -0.00844360375529
N           -0.94777743234471       -1.32856258468118       -0.07063982920296
C           -1.52647119484614       -2.65660525129175       -0.05742081265157
H            3.31859725792386        2.08020785445022        1.05153344662730
H            4.24084266171495        0.83628901169996        0.00315810606859
H            2.93976800921527        1.92610124475987       -0.61521995938647
H            3.53429169060296       -1.72787588827159       -0.26895501423774
H           -1.57842877923422        3.03798801091043        0.04372508450422
H           -2.79432870801847        2.12704545642904       -0.90074026175778
H           -2.82734031972121        2.05541746295132        0.87037940321988
H           -1.22720447605990       -3.21232058893850        0.83457240873580
H           -1.24959971384713       -3.21770194619702       -0.95208663332958
H           -2.61047403040122       -2.52933681529093       -0.04262353816853
H            1.32789956418531       -2.97525865134085       -0.11673396569261
25
 energy: 6.556462261421 xtb: 6.6.1 (8d0f1dd)
C            3.24220047769706        1.24887547181871        0.16719313792165
N            2.33299573469339        0.09991195853541        0.10034335997542
C            2.61750024624982       -1.28264054339881        0.06694513261567
N            1.41367435143759       -1.97024935791117       -0.09264320314422
C            0.39827927454979       -1.09224703756756       -0.06544158158706
C            0.93888705975397        0.18667234146499        0.00670682948065
C            0.13424114404922        1.34224703919189       -0.02134694356224
O            0.50904179264011        2.51233791370383       -0.03030318125002
N           -1.25383180438866        1.01406853016931       -0.02830219317517
C           -2.17861632324515        2.13159319174904       -0.00176761694844
C           -1.81893127329264       -0.22324593071985       -0.03144801400125
O           -3.02099942535454       -0.39622634584744       -0.00973169354465
N           -0.94746821420878       -1.32842113104684       -0.07098902963620
C           -1.52652725266852       -2.65652297534898       -0.05776064081875
H            3.31841663329373        2.07939501796801        1.04969401084440
H            4.24117534825278        0.83806108951766       -0.00040055575918
H            2.93696570519211        1.92496289120416       -0.61634074117538
H            3.53332784399598       -1.72588794558537       -0.27350591378833
H           -1.57798598805302        3.03814588174144        0.04349037250587
H           -2.79406674630576        2.12713904273714       -0.90059188008352
H           -2.82661431789069        2.05583074332422        0.87049991301168
H           -1.22747586256899       -3.21217073431977        0.83427637367001
H           -1.24977124532631       -3.21759514032860       -0.95241421152980
H           -2.61055566998125       -2.52921979789047       -0.04304884979189
H            1.32835317941540       -2.97578557098904       -0.11607898408196
25
 energy: 6.512941848410 xtb: 6.6.1 (8d0f1dd)
C            3.24189461716459        1.24912921346496        0.16897472038198
N            2.33327914811591        0.09918707118715        0.10356947947873
C            2.61817817372505       -1.28402203121691        0.07413157479366
N            1.41378159056755       -1.97063545977734       -0.09181244380883
C            0.39845580839585       -1.09237997122690       -0.06626623782247
C            0.94002571786680        0.18598180145957        0.00655452849882
C            0.13473196099535        1.34184524156916       -0.02103732397758
O            0.50980009974024        2.51160946310928       -0.02994530103478
N           -1.25277385364459        1.01395623574103       -0.02864335276218
C           -2.17772346211789        2.13150136989257       -0.00174736574536
C           -1.81858783424489       -0.22337614724395       -0.03195925429835
O           -3.02064562261466       -0.39560990169654       -0.01007056956726
N           -0.94708676210402       -1.32824973066559       -0.07184862276357
C           -1.52669409629277       -2.65637817777105       -0.05819999538674
H            3.31686959503943        2.08099197742720        1.04968172546032
H            4.24125792333753        0.83955073400213       -0.00572237374701
H            2.93287175887956        1.92304904975150       -0.61630596191042
H            3.53120105900301       -1.72388700661866       -0.27830707111938
H           -1.57745773491975        3.03830313819399        0.04350878450849
H           -2.79347531447872        2.12717243264618       -0.90037513571463
H           -2.82562630039034        2.05573307256478        0.87061879670621
H           -1.22766445380460       -3.21184055270009        0.83391389743195
H           -1.25035116393104       -3.21769692882612       -0.95275855867830
H           -2.61069955253610       -2.52873530263505       -0.04329273716571
H            1.32865336618509       -2.97617098845941       -0.11562730561028
25
 energy: 6.439124195272 xtb: 6.6.1 (8d0f1dd)
C            3.24169926464476        1.24900741063257        0.16985238836676
N            2.33373453224945        0.09881259305549        0.10530446706819
C            2.61854858337239       -1.28416938427848        0.07815601932421
N            1.41397881993714       -1.97040722175024       -0.09188549635914
C            0.39845638968097       -1.09207023452051       -0.06699544395277
C            0.94055225767362        0.18586669080286        0.00732752437726
C            0.13504959611583        1.34165278340492       -0.02138178540962
O            0.51013533410718        2.51151612570375       -0.03138498423143
N           -1.25205993273881        1.01368493272029       -0.02898940016909
C           -2.17731945735123        2.13120574123538       -0.00195244279137
C           -1.81836516527556       -0.22357927482897       -0.03190141860624
O           -3.02037128672162       -0.39494760664140       -0.00903723113770
N           -0.94683302379732       -1.32820822031561       -0.07256708716859
C           -1.52669326557437       -2.65634837974867       -0.05838503095813
H            3.31654573206867        2.08057082822435        1.05060248988426
H            4.24037418232834        0.83989463451439       -0.00734115022895
H            2.93162134379253        1.92278674904456       -0.61544339863021
H            3.52902999475283       -1.72267308119979       -0.28293216533540
H           -1.57741138534006        3.03831075468239        0.04352738837012
H           -2.79294033266262        2.12693785325021       -0.90064549990865
H           -2.82530961937715        2.05495685083425        0.87030179451557
H           -1.22752224893052       -3.21154260160274        0.83384542587070
H           -1.25065403645505       -3.21801351370146       -0.95274863522567
H           -2.61061872493888       -2.52831628753661       -0.04319083308479
H            1.32858711637606       -2.97589953980904       -0.11510159843200
25
 energy: 6.368479105423 xtb: 6.6.1 (8d0f1dd)
C            3.24150505469185        1.24888650291470        0.17072869989280
N            2.33418879412265        0.09843969595742        0.10703608679454
C            2.61891672144953       -1.28431517159950        0.08216595023682
N            1.41417572284529       -1.97017937551600       -0.09195809375174
C            0.39845651172441       -1.09176166158700       -0.06772247665059
C            0.94107738784647        0.18575169349827        0.00809852044557
C            0.13536670106222        1.34146061797797       -0.02172427414299
O            0.51047002853450        2.51142287858477       -0.03281863824467
N           -1.25134793366741        1.01341396962406       -0.02933415691751
C           -2.17691621670612        2.13091077822061       -0.00215643146409
C           -1.81814353770445       -0.22378174557291       -0.03184426058833
O           -3.02009800506052       -0.39428695781599       -0.00800823333383
N           -0.94658047698675       -1.32816690567704       -0.07328343634307
C           -1.52669297661895       -2.65631880136534       -0.05856980779142
H            3.31622181908858        2.08015425902125        1.05151997600555
H            4.23948997954813        0.84023611025894       -0.00895681056127
H            2.93037540724854        1.92252429407709       -0.61458823646597
H            3.52686887104336       -1.72146484651419       -0.28753606897988
H           -1.57736480359771        3.03831831471220        0.04354601482144
H           -2.79240702238997        2.12670410885704       -0.90091424513272
H           -2.82499330762866        2.05418309964468        0.86998647633643
H           -1.22738123350239       -3.21124565499332        0.83377687876402
H           -1.25095674523115       -3.21832935533037       -0.95273914542270
H           -2.61053874564650       -2.52789848421386       -0.04308898941955
H            1.32852267347163       -2.97562876099160       -0.11458140193953
25
 energy: 6.421594244495 xtb: 6.6.1 (8d0f1dd)
C            3.24160326369585        1.24869123952858        0.17002169336355
N            2.33409069382298        0.09855691902962        0.10565184341638
C            2.61891464826508       -1.28426898835586        0.08002708471594
N            1.41404502950510       -1.97025364892048       -0.09216902587307
C            0.39853136576856       -1.09179130666065       -0.06740566693093
C            0.94072948413029        0.18594418773772        0.00786288364334
C            0.13519921397458        1.34158188271305       -0.02190090771533
O            0.51019361650003        2.51160822334414       -0.03285249120007
N           -1.25175264768233        1.01356381545690       -0.02920813997738
C           -2.17723783897519        2.13104167538462       -0.00212961458691
C           -1.81816336616312       -0.22370143492056       -0.03167874633626
O           -3.02016564923468       -0.39461644953568       -0.00795426478748
N           -0.94664948370390       -1.32820271397726       -0.07297173348226
C           -1.52657562335844       -2.65632139387918       -0.05844509539198
H            3.31677303582830        2.08002558815196        1.05177785988042
H            4.24003455435433        0.83995096217452       -0.00733215328488
H            2.93115567447326        1.92314808847452       -0.61432117430137
H            3.52722369621196       -1.72200914671460       -0.28647164318129
H           -1.57751006006352        3.03829230218279        0.04357480837653
H           -2.79264406534176        2.12678649725721       -0.90095401879561
H           -2.82534364044868        2.05434314757874        0.86997560727760
H           -1.22730668325429       -3.21135650305561        0.83387094618771
H           -1.25064445492351       -3.21820652959467       -0.95266683521556
H           -2.61044563040204       -2.52808502955563       -0.04309618189000
H            1.32815953495769       -2.97569278167230       -0.11417113776379
25
 energy: 6.468795600422 xtb: 6.6.1 (8d0f1dd)
C            3.24166352849332        1.24840181186773        0.16903140738061
N            2.33378425634243        0.09874223841075        0.10369458762631
C            2.61915395422426       -1.28443898344184        0.07816384466871
N            1.41378790861163       -1.97047121794144       -0.09194038298513
C            0.39872493061297       -1.09187890209058       -0.06635756206234
C            0.94020856953771        0.18620344294472        0.00769117180898
C            0.13484944986256        1.34184365312762       -0.02208822998496
O            0.50971382589983        2.51179613516425       -0.03272369564969
N           -1.25238205791355        1.01391457397537       -0.02904912707590
C           -2.17775773201540        2.13131758308011       -0.00223217117433
C           -1.81811886373201       -0.22357201516858       -0.03151149038064
O           -3.02019034078497       -0.39525108674146       -0.00824727921235
N           -0.94667035258688       -1.32822507865099       -0.07234601277326
C           -1.52630426637520       -2.65630074840656       -0.05827969594477
H            3.31799926467311        2.07945638505089        1.05224147563412
H            4.24072247076657        0.83937220576999       -0.00471446681197
H            2.93224494507727        1.92438218766254       -0.61380302912548
H            3.52755300523428       -1.72242145174104       -0.28797795535161
H           -1.57777677766101        3.03830270997172        0.04350814004796
H           -2.79298782508108        2.12696429756472       -0.90119590740193
H           -2.82598356011648        2.05470300406561        0.86976110089470
H           -1.22727354665610       -3.21153618860162        0.83401757329735
H           -1.24990298031606       -3.21792969606518       -0.95256922130819
H           -2.61023652716098       -2.52844749788894       -0.04333744667896
H            1.32739338900038       -2.97589875974589       -0.11270173128994
