25
 energy: 0.000000000000 xtb: 6.6.1 (8d0f1dd)
C            3.23720163006194        1.16630919979326        0.08434469647475
N            2.29877817382611        0.07527477071623        0.03981603040599
C            2.58028210190900       -1.21425402444508        0.03006176031096
N            1.43813958087363       -1.93419271955128        0.00098261760884
C            0.39035688448383       -1.05887472636071       -0.00790371836672
C            0.93510056364412        0.21347819449412        0.01709077491437
C            0.09450143893243        1.40504303904423       -0.00410947031874
O            0.49712751527797        2.54126714362870       -0.00342325688240
N           -1.25076640035757        1.06271879480407       -0.03085478223738
C           -2.21907211982101        2.15522099834493       -0.05001256985998
C           -1.81739487048744       -0.20012725993278       -0.04692818574614
O           -2.99983886758376       -0.37846417018721       -0.07008878229737
N           -0.92618586207120       -1.30210215599479       -0.03682761578324
C           -1.46982264913417       -2.64643102187190       -0.06029820460571
H            3.71247264356769        1.21471455160235        1.06488849150277
H            4.00791497605742        1.03430808813993       -0.67357694370751
H            2.69910007168542        2.09770118228144       -0.09130154882931
H            3.56654120610678       -1.63682992603973        0.04233140067262
H           -1.67107961066214        3.09322851271934       -0.02552706933167
H           -2.82428953597071        2.09428624779827       -0.95318082946668
H           -2.87644029173232        2.07745725625962        0.81450067533302
H           -1.17061996399332       -3.19584890659852        0.83242232437030
H           -1.14560257411436       -3.17511610292205       -0.95688275822323
H           -2.55549792440841       -2.55659984320617       -0.07459039797972
H            1.38130855184625       -2.94313852034425       -0.01389874181052
25
 energy: -2.003703410519 xtb: 6.6.1 (8d0f1dd)
C            3.23969737140302        1.18319775324429        0.08610113679735
N            2.30342449187706        0.08753648852396        0.03804067394442
C            2.58242635012245       -1.25327948551096        0.03028277619280
N            1.40943314223256       -1.99421324884000       -0.00007246866616
C            0.40075968699546       -1.06520289265470       -0.00836864305410
C            0.93004949608330        0.22153641572749        0.01548423028398
C            0.10188808065802        1.40615057670793       -0.00429371903571
O            0.49466747751045        2.57419285894082       -0.00230098827323
N           -1.26049739770571        1.06456907636086       -0.03120804908723
C           -2.22895275537046        2.15682330017616       -0.05026274100456
C           -1.81723720188964       -0.18915565605573       -0.04783140251220
O           -3.01289003559331       -0.37434228788629       -0.07143431237407
N           -0.92789640092355       -1.28990494896871       -0.03711200223116
C           -1.44737742678674       -2.63367169512249       -0.05946017177858
H            3.72508978585740        1.24038960925673        1.06479390996784
H            4.01055177984292        1.06221900970545       -0.67676431924597
H            2.70447373624106        2.11834731339452       -0.08554624444062
H            3.56717128360430       -1.65672674173738        0.04409755095776
H           -1.68072769707256        3.09618010068265       -0.02594298904662
H           -2.83637205100529        2.09899404060228       -0.95336106144951
H           -2.88851547153118        2.08214371654829        0.81403265388689
H           -1.12547413228713       -3.17361941412655        0.83303248917812
H           -1.10046736592293       -3.15398867452098       -0.95431044422197
H           -2.53247044455339       -2.55829909925597       -0.07398215866247
H            1.30146036615009       -3.06084751301964       -0.01657980997772
25
 energy: 5.328639087161 xtb: 6.6.1 (8d0f1dd)
C            3.24123697264620        1.18975698378333        0.08705379111200
N            2.30641613123102        0.08880658550590        0.03544484578181
C            2.57565110280014       -1.28811018384383        0.03137010860736
N            1.37729837788473       -2.04661322202433       -0.00058649510281
C            0.40931754209378       -1.06856903908371       -0.00894994622598
C            0.92624953054290        0.22425840775691        0.01364542081330
C            0.10841424455354        1.40021204908070       -0.00416233346151
O            0.48275594304501        2.58192878825712       -0.00027695774600
N           -1.27142324246373        1.07188723415565       -0.03174382227695
C           -2.23865434331163        2.16432372083264       -0.05067137150199
C           -1.81416592127416       -0.17458830107431       -0.04886832519497
O           -3.01340597248983       -0.37073341279389       -0.07338577714392
N           -0.92867789566661       -1.26901243161679       -0.03745545789728
C           -1.41684856424092       -2.61765621652882       -0.05837307104588
H            3.73646101620259        1.26005573173219        1.06255702422375
H            4.01212633965230        1.09031804942915       -0.68150340761570
H            2.70407287042983        2.12773540785884       -0.07774581940565
H            3.56417903024589       -1.66662631128441        0.04699158363522
H           -1.69265557955836        3.10568711435895       -0.02649554706927
H           -2.84871742382292        2.10636811586527       -0.95289733796527
H           -2.90065166340326        2.08948765605705        0.81266404404930
H           -1.07018672191154       -3.14591905473617        0.83416076850766
H           -1.04510141465407       -3.12796146158588       -0.95128896798449
H           -2.50211171790453       -2.56994612556015       -0.07333548688408
H            1.21063602730983       -3.16606148236939       -0.01911356606137
25
 energy: 10.229545003793 xtb: 6.6.1 (8d0f1dd)
C            3.24108565928654        1.19019695641588        0.08709497807514
N            2.30781915401759        0.08720268376057        0.03404473476957
C            2.57060074735059       -1.29951095074810        0.03247778079012
N            1.36440002528027       -2.06436905491700       -0.00044226824071
C            0.41153510507988       -1.07112897334875       -0.00930305829142
C            0.92556159597126        0.22271949301920        0.01283685944330
C            0.11099691995982        1.39846307847346       -0.00381616536400
O            0.47655160934818        2.58048218679458        0.00107192903237
N           -1.27619577542497        1.07854010996616       -0.03215738365730
C           -2.24205808919256        2.17083228883508       -0.05100001277535
C           -1.81437751485338       -0.16863750579505       -0.04958299072379
O           -3.01296874340726       -0.37112133139994       -0.07478654009754
N           -0.92942796206192       -1.25847604463875       -0.03770725663536
C           -1.40260919570539       -2.61158156765895       -0.05772967896625
H            3.74020886225332        1.26297594319989        1.06061049672587
H            4.01032604273845        1.10094194678186       -0.68466629243451
H            2.70055783161779        2.12826318552228       -0.07308620524802
H            3.56424823284290       -1.66508602485396        0.04873345923803
H           -1.69782814771507        3.11293999486282       -0.02685798120297
H           -2.85280031490543        2.11163313994234       -0.95289467114006
H           -2.90456611266677        2.09478404718647        0.81206797313968
H           -1.04525740180790       -3.13181980152340        0.83563810350634
H           -1.01995504293448       -3.11499887699908       -0.95027468485590
H           -2.48779842083121       -2.58167557247925       -0.07302408713480
H            1.17416560369593       -3.21254074822633       -0.02021314180518
25
 energy: 12.146984950586 xtb: 6.6.1 (8d0f1dd)
C            3.24109931784690        1.19059189438284        0.08709867266000
N            2.30877989995096        0.08720657928223        0.03344607627329
C            2.56946594467996       -1.29959048873754        0.03343458374352
N            1.36301052401236       -2.06625561899827       -0.00014824650048
C            0.41204259875041       -1.07302427410204       -0.00953375707145
C            0.92599020495855        0.22109970178991        0.01237830110797
C            0.11200435092829        1.39856156200581       -0.00381976335073
O            0.47462067968859        2.57894907706991        0.00163483342610
N           -1.27702100839817        1.08100581401002       -0.03242448219918
C           -2.24239516135755        2.17278487258437       -0.05112194184510
C           -1.81517925474188       -0.16792137577289       -0.04985274564214
O           -3.01290431827216       -0.37222026749983       -0.07523090685015
N           -0.92984267301557       -1.25547685269213       -0.03784529906686
C           -1.40059350191892       -2.61031328803670       -0.05752773839624
H            3.74120785170459        1.26223165535077        1.05987098714023
H            4.00913944623972        1.10336937800653       -0.68568737834003
H            2.69944018813428        2.12840173896725       -0.07147064712414
H            3.56576294261400       -1.65969304568578        0.04920281906437
H           -1.69889734428376        3.11505023906557       -0.02702097618530
H           -2.85320335371570        2.11323897135111       -0.95298564738065
H           -2.90478551327357        2.09644065144198        0.81207075930064
H           -1.04198902924391       -3.12783885527886        0.83627999889563
H           -1.01657040181952       -3.11140848616098       -0.95018409112229
H           -2.48523189721638       -2.58527382260614       -0.07292433262103
H            1.16826417568470       -3.23088715756512       -0.02060518176869
25
 energy: 13.793214438045 xtb: 6.6.1 (8d0f1dd)
C            3.24132254478933        1.19107418130884        0.08711260559531
N            2.30952993859353        0.08777506367394        0.03291417563829
C            2.56913997806182       -1.29685028733179        0.03490010928098
N            1.36455212459187       -2.06340575610345        0.00032981101379
C            0.41200534849627       -1.07435745402060       -0.00981794931996
C            0.92642157312573        0.21998559134467        0.01188163130957
C            0.11268307999197        1.39939302688125       -0.00396810878019
O            0.47382295643473        2.57829958667503        0.00204057936751
N           -1.27679871291096        1.08220014483599       -0.03268311433073
C           -2.24220526642065        2.17318908916420       -0.05118214376899
C           -1.81610515781690       -0.16829386487809       -0.04995612659790
O           -3.01305045507094       -0.37271087978532       -0.07529447432716
N           -0.93023661806242       -1.25395191604003       -0.03797433641436
C           -1.40149587145087       -2.61003660244198       -0.05747860363525
H            3.74164764922220        1.26127179113169        1.05958961861499
H            4.00865537442816        1.10386428056461       -0.68602723521810
H            2.69966074419717        2.12880227999401       -0.07079450916323
H            3.56708112784659       -1.65374720011637        0.04883995127784
H           -1.69946324631889        3.11575219868413       -0.02711154079297
H           -2.85308897570610        2.11363441921723       -0.95302732275435
H           -2.90444710338820        2.09684726749674        0.81218157275989
H           -1.04325951065190       -3.12640746678945        0.83651188817277
H           -1.01779610012087       -3.11014953919826       -0.95023026942917
H           -2.48574529465268       -2.58609699210740       -0.07290584872570
H            1.16938454072820       -3.24705235998756       -0.02081646362559
25
 energy: 14.563389367746 xtb: 6.6.1 (8d0f1dd)
C            3.24147365564372        1.19138566522047        0.08712667846790
N            2.30954582600259        0.08832124766247        0.03275481003472
C            2.56930802065207       -1.29487122813585        0.03623089198047
N            1.36640730984180       -2.05967348564445        0.00065087088137
C            0.41165393114696       -1.07402183153379       -0.00998055283999
C            0.92633835193077        0.22055756051393        0.01170582120769
C            0.11264085568075        1.40021159294639       -0.00407627842089
O            0.47417934200986        2.57914736180263        0.00206009863832
N           -1.27633840111530        1.08192335913395       -0.03276604344838
C           -2.24206706202091        2.17259545527832       -0.05117188842831
C           -1.81634946776046       -0.16871226750789       -0.04988496472164
O           -3.01324178825337       -0.37215151974134       -0.07505555822698
N           -0.93033798076243       -1.25407086768010       -0.03802147556344
C           -1.40271560844079       -2.61033433641356       -0.05755067707918
H            3.74140204057318        1.26133733815328        1.05983658040824
H            4.00907757875829        1.10323039633350       -0.68569775620417
H            2.70042316708440        2.12925176891127       -0.07119816454562
H            3.56701591256830       -1.65253244137985        0.04768403333374
H           -1.69958294892441        3.11538539807974       -0.02708503874087
H           -2.85300563155243        2.11317968958905       -0.95300951719285
H           -2.90429927570852        2.09634268578035        0.81223280780125
H           -1.04497731733674       -3.12716462510437        0.83633579440215
H           -1.01953930793479       -3.11085160308606       -0.95027514291105
H           -2.48705037372084       -2.58481543624142       -0.07295012394397
H            1.17225383957451       -3.25464127476466       -0.02086130874122
25
 energy: 14.952110584225 xtb: 6.6.1 (8d0f1dd)
C            3.24150805284998        1.19166374184704        0.08715563697500
N            2.30931187620462        0.08869060808468        0.03284215037077
C            2.56952069158355       -1.29416325850817        0.03757641812826
N            1.36750287507594       -2.05710519232394        0.00081422764136
C            0.41136010098256       -1.07310427886178       -0.01008369753257
C            0.92608378818640        0.22179291294852        0.01174272023195
C            0.11231204054402        1.40072430298773       -0.00412194516438
O            0.47474309998213        2.58022941278959        0.00187425617507
N           -1.27614651951940        1.08137868253247       -0.03276108347973
C           -2.24210332865137        2.17213001272977       -0.05114789504242
C           -1.81616655570431       -0.16881974218343       -0.04980335403419
O           -3.01330487623653       -0.37146926276110       -0.07482517091157
N           -0.93029022569926       -1.25472263711719       -0.03805435222340
C           -1.40320332129756       -2.61062273627507       -0.05762986702718
H            3.74101429305795        1.26196690316729        1.06016033636375
H            4.00960332586866        1.10275930810098       -0.68526186305373
H            2.70085972118881        2.12964507025429       -0.07178257070889
H            3.56646596241623       -1.65379363958111        0.04615658525756
H           -1.69948946287461        3.11494228697094       -0.02702969636379
H           -2.85303717489734        2.11280789262256       -0.95299319200866
H           -2.90436647434993        2.09591160409621        0.81222954817724
H           -1.04570741603394       -3.12813667682996        0.83614190213955
H           -1.02029566065075       -3.11175295028955       -0.95030303213117
H           -2.48772135068421       -2.58357960541647       -0.07299467611834
H            1.17376120659457       -3.25834415681228       -0.02086748951320
25
 energy: 15.106246394082 xtb: 6.6.1 (8d0f1dd)
C            3.24148687873839        1.19191001907924        0.08721187461794
N            2.30908869415598        0.08885870161178        0.03312984803113
C            2.56965808764041       -1.29433381100573        0.03919242820103
N            1.36779179188744       -2.05608075842596        0.00085166763425
C            0.41124861517260       -1.07225891397947       -0.01019874046283
C            0.92591418176549        0.22293906784882        0.01187506064809
C            0.11195477027645        1.40088028292240       -0.00415360268968
O            0.47512282384284        2.58090076775227        0.00160254657271
N           -1.27624307338228        1.08102950650522       -0.03272664963968
C           -2.24224377294726        2.17206897372905       -0.05113037804840
C           -1.81579995810526       -0.16864044938677       -0.04978556726008
O           -3.01319750281189       -0.37114396249815       -0.07472170160587
N           -0.93019145454116       -1.25544527266243       -0.03813485565745
C           -1.40306463685056       -2.61075255831901       -0.05768313137107
H            3.74077170712785        1.26267942705194        1.06035972180361
H            4.00988460803578        1.10269875109961       -0.68496005435347
H            2.70086208724474        2.12988659073071       -0.07215619899248
H            3.56597598551364       -1.65563848351307        0.04434307942820
H           -1.69926385969135        3.11469901616684       -0.02699215221222
H           -2.85311186763819        2.11274810415334       -0.95299262028132
H           -2.90450672954985        2.09581404328612        0.81220599514563
H           -1.04565431477600       -3.12870615279027        0.83605706455870
H           -1.02025609437749       -3.11233794398223       -0.95031600682327
H           -2.48770417502677       -2.58308474743667       -0.07302037963741
H            1.17369187623265       -3.25966159576554       -0.02082335145878
