25
 energy: 50.236705368209 xtb: 6.6.1 (8d0f1dd)
C            3.26525450015439        1.45800989081859        0.11373341447449
N            2.47608506469690        0.21588460912821        0.03963213014974
C            2.83694984496686       -1.08062510175773        0.05743356536880
N            1.74302848484370       -1.88438012393545        0.05420617035114
C            0.59562396692285       -1.11290056388484        0.00064753834013
C            1.10536947940003        0.21331542280782       -0.01730605662470
C            0.24373222637503        1.33458892722284       -0.05289846540023
O            0.59712836552778        2.50818669028410       -0.05713806661065
N           -1.06774294098455        0.92648979200469       -0.07041655667698
C           -2.01521381614603        2.02907661761724       -0.06462074556413
C           -1.57523176401157       -0.40483278821981       -0.06427847327937
O           -2.79398000618312       -0.44912711711638       -0.08133968696683
N           -0.69018775105267       -1.48712873249203       -0.03356695195391
C           -2.56822543402167       -3.26539513982894       -0.11528521257961
H            4.01662006218694        1.45606561210598        0.91002206296869
H            3.78806273647434        1.69259279421466       -0.82413934932749
H            2.58380006660957        2.29478536067929        0.34904710017855
H            3.83130087923870       -1.47498551255987        0.12279375700243
H           -1.40231858625548        2.91735687967287       -0.06381730032483
H           -2.64794991062282        2.03171319340483       -0.95052295277599
H           -2.64591643107893        2.03537291664872        0.82715503165814
H           -2.43450999320458       -3.77757046773019        0.78239052964539
H           -2.39033019500340       -3.74396577318005       -1.02386418378594
H           -3.29994551836125       -2.50385573849318       -0.11727499788756
H            1.81226496519864       -2.89210296878687        0.10800239971895
