25
 energy: 38.624960792226 xtb: 6.6.1 (8d0f1dd)
C            3.49713446058655        1.61040573057368        0.08213274436855
N            2.60451640212334        0.48059063483959        0.06756395298916
C            2.94921016852788       -0.79621987226146        0.09813802050409
N            1.84576297198628       -1.57383780900764        0.05642443780140
C            0.73247286974606       -0.74410327974604        0.01493999099035
C            1.24518980584101        0.56171251013819        0.02384597944615
C            0.35442314783011        1.69005829360211        0.00446648280733
O            0.70486677195400        2.86303024521462        0.02105041939753
N           -0.95377144749023        1.28286668531809       -0.03221799706457
C           -1.97534717340861        2.31470586325523       -0.05676582690757
C           -1.42656426897969       -0.06654833608241       -0.04500019368646
O           -2.62152901500202       -0.24037363924823       -0.07814160169380
N           -0.52366480450760       -1.08535587412323       -0.01896334872007
C           -3.20060520327232       -4.56023323157491       -0.13037535790609
H            4.18434949983680        1.54389210760717        0.92103914359939
H            4.09381186179138        1.64632995260221       -0.82965353930520
H            2.90682625368475        2.52393620989171        0.15158083406013
H            3.96525877135475       -1.13411154943226        0.13244621963949
H           -1.46668766091089        3.26931409588938       -0.05251018913572
H           -2.58593220814915        2.22220908025334       -0.95371310593860
H           -2.62326979775983        2.21516657461132        0.81327675838433
H           -3.22744740576154       -5.10026329446753        0.77991642102884
H           -3.15670528655589       -5.04514362351039       -1.07055623555999
H           -3.32491069030693       -3.50942594675522       -0.10442837387992
H            1.83829379644066       -2.58230458573121        0.06035542819035
