25
 energy: 31.054976811091 xtb: 6.6.1 (8d0f1dd)
C            3.27159948307638        1.35154561977194        0.10541701681466
N            2.40819219821266        0.16364987903988        0.02190140681825
C            2.76046994113528       -1.19409061643166        0.04616117383777
N            1.60613690894601       -1.94396874073343        0.04031716778646
C            0.48100831726476       -1.19371025210927       -0.00788864261198
C            0.99174208614142        0.15114678389750       -0.01821894357095
C            0.18618776255928        1.29952701432650       -0.04580088179958
O            0.51829537239427        2.49315794415790       -0.04765091107214
N           -1.19505638670679        0.91083316424163       -0.05590833457025
C           -2.10176333048098        2.05134973683186       -0.05517019013734
C           -1.73706671677520       -0.34974024907581       -0.06479488291702
O           -2.95988032701018       -0.42756702691603       -0.08099007576462
N           -0.94019303675334       -1.54768951552773       -0.04722994366789
C           -1.98557785576749       -2.80495560137359       -0.08593746397035
H            3.90172907202688        1.37537967373234        1.00943817143633
H            3.96240520737198        1.46605307713851       -0.75267437116496
H            2.65712195532675        2.26777890237816        0.15411811031513
H            3.75252276399543       -1.61143730748119        0.08647945907628
H           -1.44793854149777        2.92841105653806       -0.03640483972669
H           -2.71870834125891        2.07188931428877       -0.95320570443299
H           -2.74329427592648        2.06212101162529        0.82631119635882
H           -1.92962766886499       -3.44655155650118        0.78736727219053
H           -1.89187642117210       -3.42551139008998       -0.96933488538819
H           -2.95565894296581       -2.29734795892199       -0.09967438636307
H            1.62699755702411       -2.94691183202222        0.07867143685909
