25
 energy: 40.649501818129 xtb: 6.6.1 (8d0f1dd)
C            3.44058109315760        1.61216742459342        0.08335165122937
N            2.58056635899256        0.44748336328560        0.06443790925862
C            2.94406786941340       -0.82746908929644        0.11114437438016
N            1.85991411790558       -1.62023927961067        0.07213342406457
C            0.72191794674996       -0.81963200507144        0.01340372603484
C            1.21964625699482        0.49602064589934        0.01082712509965
C            0.33521561136509        1.62012900607945       -0.00809483287590
O            0.67195134504695        2.79727020866900        0.01036494015149
N           -0.96919570434571        1.20053466546413       -0.04191994494697
C           -1.97430561785739        2.24801150865091       -0.06572292780026
C           -1.43747961522512       -0.15343701528345       -0.04900275575488
O           -2.63431640396141       -0.31926371701812       -0.07980847647853
N           -0.53242815227145       -1.17911327876890       -0.02018552610235
C           -3.03165538582496       -4.28877396908247       -0.12285859412006
H            4.20802024270565        1.51519171941671        0.84302686440431
H            3.96795599206797        1.74376284842350       -0.86038812824691
H            2.85287908413743        2.51078358651589        0.26208876252638
H            3.95652789250159       -1.16558705003975        0.19212488646413
H           -1.43210151666136        3.18474389198209       -0.07188222910492
H           -2.59254487786693        2.17066509965230       -0.95758582560611
H           -2.60619393609753        2.17450570146898        0.81384633856756
H           -3.12989558649120       -4.83374880284469        0.76866164435227
H           -3.06264037362762       -4.78556341049776       -1.04712135532229
H           -3.34984422145524       -3.27704918820840       -0.10595867851448
H            1.92041687709453       -2.62081678792751        0.08555057352974
