25
 energy: 38.277389669023 xtb: 6.6.1 (8d0f1dd)
C            3.53437604814865        1.60758672408888        0.08244302942288
N            2.62298849230350        0.49160086182308        0.06483714355512
C            2.94837085006699       -0.79319932027365        0.08198276843831
N            1.83024282170625       -1.54869842664883        0.04782986559188
C            0.73543015949208       -0.70371836471307        0.01631007544752
C            1.26175046151921        0.59467187444933        0.02897582433187
C            0.36884064009729        1.72771116588682        0.00858538423476
O            0.72452002693485        2.89905056103161        0.02412631497310
N           -0.94258604000654        1.32498070450852       -0.02850451353875
C           -1.96964618555025        2.35174443563879       -0.05411072913200
C           -1.42197032177304       -0.02488794826321       -0.04371569947701
O           -2.61621055285646       -0.20094996602356       -0.07829677204102
N           -0.52083898415832       -1.03909860748628       -0.01733246789842
C           -3.26541678698415       -4.66159250400035       -0.13353086335776
H            4.16969345424292        1.55861085871541        0.96412134016623
H            4.17594974080164        1.59709690174797       -0.79914705069275
H            2.95381900735455        2.53081611105048        0.09362975873228
H            3.95317292518305       -1.16516541827717        0.11137750216341
H           -1.47628644557700        3.31859944814526       -0.04570348552309
H           -2.57986929864236        2.24751053572774       -0.95091277074001
H           -2.62061792991420        2.24674587280046        0.81373604232462
H           -3.27730321519633       -5.20830428305728        0.78741324989760
H           -3.20612513041860       -5.15467492693968       -1.08242714355873
H           -3.30759077768662       -3.59818726182278       -0.10502013226345
H            1.78842032834804       -2.55550883777811        0.04666646692063
