25
 energy: 51.858763436785 xtb: 6.6.1 (8d0f1dd)
C            3.27415499768407        1.44500522641943        0.11261004915837
N            2.47480061049529        0.20204314490809        0.03058162258126
C            2.83253319521306       -1.10710460200600        0.05273175120880
N            1.72081417710906       -1.90086838346252        0.04823238886505
C            0.57561049456892       -1.13381160779692       -0.00000441806411
C            1.09315699502607        0.19040312444994       -0.01909327339178
C            0.22989526741637        1.31017914173799       -0.05675467364084
O            0.59106740467311        2.48191292040664       -0.06700463069710
N           -1.09113312677024        0.91455913239159       -0.06822757402851
C           -2.03597300599954        2.02407821175365       -0.06254658552970
C           -1.60569385968859       -0.40584241800875       -0.06560636314638
O           -2.82604205521131       -0.44187591573403       -0.08327152770857
N           -0.72626204345062       -1.49729180262826       -0.03526150622668
C           -2.47906516354667       -3.17507635531741       -0.10906594433292
H            3.98845598094826        1.45720831404104        0.94082675319660
H            3.84887171788175        1.66773760265724       -0.79621175085826
H            2.59066339095212        2.28888783325388        0.29880129309928
H            3.82578994953104       -1.51313550417431        0.11355743134251
H           -1.41759932928720        2.90528284658284       -0.04792045750222
H           -2.66493515278044        2.03596339787445       -0.95186828405172
H           -2.67023339048233        2.03116596686790        0.82661746425621
H           -2.32297186689351       -3.68431388523209        0.79291743078503
H           -2.27681920053915       -3.65563636223013       -1.01595280103368
H           -3.23986776895448       -2.43988247170886       -0.11574889875266
H            1.76927779802340       -2.90841092633690        0.09795692350509
