25
 energy: 48.914421099826 xtb: 6.6.1 (8d0f1dd)
C            3.25472971456023        1.46759904723946        0.11360098213100
N            2.47454462736317        0.23068586717949        0.04287734094989
C            2.84180350772025       -1.05462424019825        0.06040696890364
N            1.76136030393245       -1.86510089512889        0.05901882249219
C            0.61275296865015       -1.09049858936856        0.00195789274855
C            1.11409773314909        0.23629513138460       -0.01632379816734
C            0.25765464442969        1.36215814389080       -0.04828464112705
O            0.61225651682638        2.53527078684673       -0.04623813296346
N           -1.04575631771298        0.94735614266598       -0.07019557604750
C           -1.99339809252784        2.04588624958052       -0.06527953033445
C           -1.54741032421259       -0.39553522015256       -0.06399419893382
O           -2.76445295709875       -0.44699099419711       -0.08240044356829
N           -0.66128899423901       -1.46998896062430       -0.03118952709245
C           -2.64105635366138       -3.36019230557529       -0.11900069167455
H            4.02868823607013        1.41383657939458        0.88386686423459
H            3.72879164564845        1.71796990247426       -0.84656503337693
H            2.59338202746464        2.31091762659317        0.39115560114759
H            3.83758067915276       -1.43887805111103        0.13217778889885
H           -1.39185246239102        2.94933087263625       -0.07236823570338
H           -2.63003583811622        2.03469846357733       -0.94730526516570
H           -2.62098558473201        2.04115550050189        0.82863199711054
H           -2.54583976246360       -3.87717731242244        0.77650704623053
H           -2.50064623205474       -3.83929015703001       -1.03089889089634
H           -3.34766500604653       -2.57546279651951       -0.11790705443363
H            1.85290329576084       -2.87238051607944        0.11455512491935
