25
 energy: -5.589189538719 xtb: 6.6.1 (8d0f1dd)
C            3.24896541691459        1.20136767417069        0.08964002431754
N            2.31955920679733        0.11329881852615        0.03300118577967
C            2.62100405923301       -1.23429270456272        0.03399544463743
N            1.43899403384116       -1.92807302220262        0.01108738018569
C            0.40622454900699       -1.06935838862531       -0.00713284969244
C            0.92817056302755        0.22701658720052        0.00771136338772
C            0.12178307783923        1.37851401040656       -0.00877896086167
O            0.48404789873002        2.56075055387353       -0.00776231380321
N           -1.26542298104184        1.02466166843306       -0.03251168196044
C           -2.20602513154465        2.13198537800857       -0.05015027225380
C           -1.81288668287179       -0.22292505767144       -0.04874659003567
O           -3.01564831745542       -0.39787953018480       -0.07149444412738
N           -0.94140165392926       -1.33842544098094       -0.03706515683242
C           -1.55556839301947       -2.66350640049637       -0.06372923155005
H            3.74745039052222        1.24486132016536        1.06440127092272
H            4.01363090343795        1.10665800360895       -0.68760627809597
H            2.69713124425169        2.13275143605780       -0.05618463791347
H            3.59623316840593       -1.66056435608328        0.04620309825723
H           -1.63100585836850        3.05669660862971       -0.02642562255665
H           -2.80955355640880        2.09451579236819       -0.95567224481092
H           -2.85852694470522        2.08067299895248        0.81956306253034
H           -1.29263837255010       -3.24957953174886        0.82227949741653
H           -1.26488437423850       -3.22732860400713       -0.95533478744775
H           -2.63300849649856       -2.50310717666934       -0.07911682226706
H            1.37327910718384       -2.92809634560726        0.01129177136527
