25
 energy: 48.128323497366 xtb: 6.6.1 (8d0f1dd)
C            3.27949274629125        1.54185809116696        0.09853136926861
N            2.51072220908106        0.31078251869552        0.05315145571350
C            2.89362110515843       -0.96511211285366        0.08450479478037
N            1.82782123359552       -1.78659803182263        0.07336989284040
C            0.66816757722000       -1.00523670519945        0.00793819093538
C            1.15512382434568        0.32201738416902       -0.00870439509321
C            0.29363926473627        1.44910748495360       -0.03351638056827
O            0.63783126589823        2.62544412035343       -0.02061594893489
N           -1.00282119679766        1.02242338659870       -0.06384044066317
C           -1.96213690194329        2.10620885794902       -0.06950839573705
C           -1.48165685073301       -0.33025235627333       -0.05801325732404
O           -2.69177721079891       -0.43493068858725       -0.08101477573962
N           -0.58993422729743       -1.38358797330332       -0.02446399906480
C           -2.79915719284856       -3.68429126091219       -0.12209894531006
H            4.11289741717472        1.42951666957293        0.77963995335039
H            3.61515466837729        1.85108251263021       -0.89078161057244
H            2.68250602873361        2.37850633003578        0.46519441861781
H            3.89444620749435       -1.33503508495442        0.16771287905143
H           -1.33729429199618        2.98844487112494       -0.09495880231115
H           -2.59672845003738        2.06871099818201       -0.94901765901968
H           -2.56256701099748        2.07664819768440        0.83653995466146
H           -2.82158379022855       -4.21809871566749        0.76627760352857
H           -2.76982860539175       -4.17433910036173       -1.03747859988116
H           -3.42914986806946       -2.83127365767709       -0.11510105252717
H            1.97233513613562       -2.78998767384062        0.12467872221139
