25
 energy: 39.418518938502 xtb: 6.6.1 (8d0f1dd)
C            3.46682716370148        1.61669099974279        0.08196986834179
N            2.59188678025782        0.46680845406181        0.06712569778036
C            2.94977381867995       -0.80844996134683        0.10750848040654
N            1.85832751923019       -1.59511504882069        0.06714628165124
C            0.72872008493006       -0.78485973127015        0.01478144051892
C            1.23148943481842        0.52673443793210        0.01741643981702
C            0.34425995755610        1.65270252425259       -0.00138935799694
O            0.68929583654202        2.82742839128823        0.01628424006084
N           -0.96203884774052        1.23855712392267       -0.03691588921341
C           -1.97638337050303        2.27804732063176       -0.06108445667548
C           -1.43094735559059       -0.11403190112730       -0.04701395233132
O           -2.62668185917178       -0.28403613987311       -0.07871086135618
N           -0.52655337084957       -1.13700362849119       -0.01910664978414
C           -3.10566702037583       -4.41781838445621       -0.12721237761092
H            4.19854427257386        1.54157188780442        0.88019923149585
H            4.02799562017344        1.69552605736803       -0.84848053758844
H            2.87380956616994        2.52115538798633        0.20478082539758
H            3.96591026704134       -1.14114649102132        0.16740434476083
H           -1.45139659195246        3.22516430938864       -0.06201059512228
H           -2.59116285386938        2.19318761216230       -0.95557460498619
H           -2.61731806708050        2.19105562553886        0.81358385722798
H           -3.17866381649416       -4.95566539819441        0.77547350660177
H           -3.10902258757060       -4.90347220153054       -1.06264371061769
H           -3.33413390218360       -3.38456365512700       -0.10526505891169
H            1.88278518429356       -2.60077185967516        0.07300360839416
