25
 energy: 51.640190259806 xtb: 6.6.1 (8d0f1dd)
C            3.27851274295505        1.38503846756903        0.11269279379911
N            2.43313036834253        0.17607873309818        0.02568638077828
C            2.79137077268652       -1.16029837105486        0.04766487942338
N            1.64790857645883       -1.93310102012778        0.04348593667400
C            0.51956196062828       -1.16699974267132       -0.00316722223747
C            1.03515934493545        0.16115881026799       -0.01747371260601
C            0.19137461241246        1.30117050953659       -0.04658878645354
O            0.54582357173143        2.48207096459690       -0.04997450971692
N           -1.15284119848815        0.91560107593113       -0.05963339093088
C           -2.07543875292866        2.04132352969939       -0.05694655627550
C           -1.68053731449579       -0.38072305194951       -0.06728844692831
O           -2.90235354847404       -0.43242679658938       -0.08375874260954
N           -0.83399666618116       -1.50625282743743       -0.04423331777043
C           -2.22152688583422       -2.98946749968459       -0.09445290367078
H            3.93510345698850        1.40887769438391        0.99551344499460
H            3.93655842144807        1.53423665476639       -0.75871393858929
H            2.64587474242060        2.28647448057325        0.20502849546916
H            3.78547014489535       -1.57636116932236        0.09521336519718
H           -1.41623298648631        2.91098622359289       -0.03874261573025
H           -2.69836315216320        2.06078179452087       -0.95072923062197
H           -2.71707041545609        2.05084680717282        0.82576383996931
H           -2.07660015345878       -3.54040783089761        0.80262208844734
H           -2.03408166391467       -3.51779589487581       -0.99437670192340
H           -3.07171502509354       -2.34148628808699       -0.10547950577750
H            1.67396475052797       -2.93735630721700        0.08698571577501
