25
 energy: 48.522733610193 xtb: 6.6.1 (8d0f1dd)
C            3.26457909764140        1.51840422144495        0.11148047180057
N            2.50000045384267        0.28149021668666        0.05252120438459
C            2.88080276410465       -0.99751893773398        0.07591473009567
N            1.80908842464064       -1.81433115588926        0.06933987589697
C            0.65278661399075       -1.03607320611326        0.00548690470455
C            1.14387028542709        0.29110988330141       -0.01109021077979
C            0.28383895096282        1.41702092325217       -0.03825351893530
O            0.63073827522229        2.59288090819768       -0.02875430846774
N           -1.01287293107945        0.99016251842295       -0.06520620253872
C           -1.96550049015994        2.07939738751149       -0.06673488446703
C           -1.49933364543722       -0.35965065392010       -0.05919314790616
O           -2.71268213392204       -0.44253085046860       -0.08104338432044
N           -0.60831381711394       -1.41839561263348       -0.02675311239892
C           -2.75195959616181       -3.57021571023837       -0.12227586135346
H            4.09199550761185        1.43171701927615        0.81743781660019
H            3.64039899917359        1.81040430696658       -0.86972102886109
H            2.64145453783094        2.34812284424836        0.46109224443293
H            3.88088561540920       -1.37279813225752        0.15763495738789
H           -1.32491562337695        2.94992682012160       -0.08548640111586
H           -2.59976994290288        2.04930430589441       -0.94646990902326
H           -2.57733977003329        2.06145897522803        0.83502743338465
H           -2.73744215057034       -4.09925330474108        0.76857443694026
H           -2.68986658575317       -4.05631830833378       -1.03744298208012
H           -3.40866987230076       -2.74005632900607       -0.11583363544818
H            1.93311890232186       -2.81943629212945        0.12055065030603
