  25
        -42.08298437
 C          2.7546450810        1.2032996767        0.0302521804
 N          1.8157272786        0.0918884250       -0.0023050462
 C          2.2930854043       -1.1178970278       -0.0111939979
 N          1.6345994472       -2.3055967565       -0.0151292273
 C          0.3306187970       -2.7194754329       -0.0081974210
 C          0.4356411753        0.3867797110        0.0070796499
 C         -0.1373653821        1.7416234182       -0.0011027042
 O          0.3788230967        2.8336269995       -0.0191465822
 N         -1.4911624713        1.5246048788        0.0175669685
 C         -2.5790147801        2.4526685622       -0.0235557656
 C         -0.6215937787       -0.4842413489        0.0093667626
 O         -1.7825925572        0.1782863982        0.0141154699
 N         -0.6853128833       -1.8830774364        0.0046043390
 C         -2.0123127522       -2.4981028467       -0.0007302177
 H          3.1862807704        1.2974368061        1.0276180915
 H          3.5524884131        1.0419379139       -0.6917200793
 H          2.2363723087        2.1328898888       -0.2024483203
 H          3.3751041247       -1.1934354474       -0.0148189902
 H         -2.1463380913        3.4491430680        0.0631801634
 H         -3.1213390527        2.3661141747       -0.9668898144
 H         -3.2589656192        2.2689542893        0.8093211296
 H         -2.1104978833       -3.1518324147        0.8636390639
 H         -2.1302493474       -3.0960276743       -0.9023848033
 H         -2.7839836846       -1.7357257709        0.0315905054
 H          2.2562257663       -3.1074040170       -0.0259147064
