25
 energy: 110.779863419790 xtb: 6.6.1 (8d0f1dd)
C            3.30926407186106        1.13096606889484        0.11497578732943
N            2.32240953828947        0.08057188163421        0.06631557738850
C            2.65640599868021       -1.20144658275057        0.07672020489040
N            1.56778757575058       -1.98831438816774        0.07390003568316
C            0.42134339008494       -1.13156230889174        0.05614211555193
C            0.96563592748241        0.18046170315094        0.05685282396098
C            0.15820658819760        1.41266783761676        0.01727544994465
O            0.71459600680031        2.52852479440781        0.00596716661615
N           -1.15177402038112        1.14823669467408        0.04369962843742
C           -2.09004513342980        2.23547559461612        0.16730129026279
C           -3.20142297865998        0.41364208946064       -1.22434536641595
O           -3.95667544069534       -0.31496023599767       -0.80752435879141
N           -0.81718459450219       -1.41752484045293        0.07939261216029
C           -1.27654879827337       -2.76105029305965        0.04511162901626
H            3.80525698939941        1.09689602200242        1.08890188492207
H            4.04705243834011        0.96979520028713       -0.67436719236886
H            2.81579470324914        2.09715270007980       -0.00785846210344
H            3.65867304865806       -1.57200283961926        0.04852592444230
H           -1.81137439925164        3.07117019582786       -0.49498321639450
H           -3.11841010964236        1.99179955679763       -0.13495996261662
H           -2.12953464739396        2.54749082159551        1.20476721469441
H           -1.04566641776699       -3.28344558302186        0.97906459733997
H           -0.84948040800653       -3.33023099653199       -0.79751756492341
H           -2.35491040996936       -2.70951418560472       -0.08469407656912
H            1.65768489506773       -2.98829177641100       -0.03491320560786
