25
 energy: 105.587645867517 xtb: 6.6.1 (8d0f1dd)
C            3.35537636443899        1.14906892445397        0.11040765862184
N            2.39488576165035        0.07116260728870        0.07979205736331
C            2.72630762896234       -1.21346414229402        0.05895110960437
N            1.60359772025467       -1.96183188434929        0.06632688733658
C            0.47233885882352       -1.11008005577832        0.06649297774418
C            1.04061425002280        0.19927092697443        0.08497128168723
C            0.26476343833378        1.47150882729131        0.07874771559648
O            0.83531586448775        2.57774237749663        0.00845405434342
N           -1.02880144309319        1.21504997575394        0.22385343098025
C           -2.03294116332604        2.21598588372727        0.17680178859902
C           -3.92344220642615        0.32864934301611       -1.26697218163014
O           -4.39282940913846       -0.66200349956046       -1.00868821747355
N           -0.78276120774228       -1.39460336229689        0.04480428369231
C           -1.30228596380930       -2.72408860108046        0.03858613041138
H            3.87229765793246        1.15078482845472        1.07066577575069
H            4.08772993095902        1.01523941271188       -0.68516804970129
H            2.81775565720020        2.09234114044884       -0.02537156463406
H            3.72860964228171       -1.59708136461187        0.06089570760514
H           -1.75117064373225        3.09009360954086       -0.41493831255335
H           -2.94728424690373        1.78598951537548       -0.26608715811610
H           -2.25140319296289        2.52022788310052        1.20095171360443
H           -1.10520838698316       -3.23834616911217        0.99299657217572
H           -0.88945107147920       -3.34733909829347       -0.77351145774715
H           -2.38525567765194       -2.63867076874724       -0.09011942308208
H            1.58887706143648       -2.97271333635257        0.00761143255898
