25
 energy: 6.997587628576 xtb: 6.6.1 (8d0f1dd)
C            3.27912795715244        1.16769440980590        0.08236890128485
N            2.29525171179855        0.12088246988714        0.05521926491238
C            2.57856645582435       -1.23429657244754        0.07726415308523
N            1.38450521670196       -1.92327709661148        0.01392831845654
C            0.33809958117220       -1.04758393722514       -0.04851676899631
C            0.89151382214913        0.22478273957089       -0.00802400190819
C            0.05001084446092        1.34534491051275       -0.03714332924500
O            0.41763599789063        2.52202292050143        0.01813992058671
N           -1.39176945873229        1.02324106571543       -0.12562751818092
C           -2.23878454752660        2.17898862876852        0.02823515048341
C           -2.01388139768426       -0.14913403105015       -0.41735424545902
O           -3.17984721612700       -0.39491587851974       -0.61700939180914
N           -1.02735608692062       -1.25704621152303       -0.16383256334053
C           -1.42555413745579       -2.64193812901316       -0.02551125344901
H            3.80696453764431        1.19861621403354        1.04485777455724
H            4.03369808490176        1.01592535352226       -0.70322548972491
H            2.75955456920432        2.11207492923576       -0.06933789033633
H            3.56370822649454       -1.64619692373134        0.07003856236434
H           -1.65645332719364        3.07201696669717       -0.22430596485512
H           -3.04413844805866        1.99456718841774       -0.67248153556354
H           -2.67665832099797        2.23835337794945        1.02806077627910
H           -1.11285424516750       -3.07242152432292        0.93965237973390
H           -1.02362479822377       -3.23839262403972       -0.85195632618785
H           -2.50841998886916       -2.66801630639889       -0.09502037582955
H            1.39686485577895       -2.93071156763777        0.03654143211777
