25
 energy: 22.854935427047 xtb: 6.6.1 (8d0f1dd)
C            3.28549732788710        1.15560120208480        0.08798471833537
N            2.28246180190560        0.11658560360565        0.07691392886239
C            2.57050049673492       -1.22786727683251        0.10093105946577
N            1.39468298310767       -1.93626983096349        0.01656781240335
C            0.33320878903287       -1.06703082423046       -0.05975855787352
C            0.87755480789540        0.21038343138910       -0.00446495697350
C            0.03709783355733        1.32388129746757       -0.07870005519909
O            0.42822284120769        2.49525987586071       -0.02343516657202
N           -1.45306752220064        1.03175600216441       -0.16299487366828
C           -2.25174075554986        2.20352251785825        0.06402129341926
C           -2.12825760401086       -0.07599882097947       -0.50400714292586
O           -3.23347304858994       -0.39125814437195       -0.82654781300078
N           -1.02110197572751       -1.27028573411734       -0.20721903605674
C           -1.40991270329886       -2.65104567720397       -0.02404194804416
H            3.83730507118240        1.17985023747103        1.03826071113451
H            4.02213259745311        0.98844418462625       -0.70712352804386
H            2.78028767484510        2.10982395177868       -0.05985035372341
H            3.55916593278234       -1.63713823562696        0.07148492271655
H           -1.69479199778544        3.07498247669582       -0.29439333038352
H           -3.12578284795602        1.99180379768165       -0.54209606537520
H           -2.58497329048364        2.30177335070316        1.10171644421368
H           -1.10570587692518       -3.01919481171422        0.96976859380296
H           -0.97037950061494       -3.26628383127612       -0.81445750984678
H           -2.48844513963003       -2.71174657294072       -0.10832695072720
H            1.43574726756846       -2.94320698765852        0.02024788696402
