25
 energy: 13.722205378171 xtb: 6.6.1 (8d0f1dd)
C            3.28193310037612        1.16239248872345        0.08470889762951
N            2.28685462825045        0.12073539722448        0.06563641962253
C            2.57017761118933       -1.22887219800891        0.09106356080450
N            1.38596704417046       -1.92780716130363        0.01543685529453
C            0.33144489108460       -1.05525188901835       -0.06302638064554
C            0.88217947404072        0.21698542555340       -0.01532193504434
C            0.04202886477084        1.33486995277702       -0.06056320574094
O            0.42594043705419        2.50717301043919       -0.00117425267332
N           -1.42089425281273        1.02809769480897       -0.15288707376505
C           -2.24547578815097        2.19008671787830        0.04587236447161
C           -2.06861924167187       -0.11820475022151       -0.46252053780624
O           -3.21127540086793       -0.39357300705618       -0.71665277301994
N           -1.03121588450280       -1.25920441219237       -0.19307762095887
C           -1.41644649935953       -2.64411037806692       -0.02268772356681
H            3.82137323628420        1.19024332519124        1.04145964033544
H            4.02936211360364        1.00044975224382       -0.70355675759848
H            2.77089414232799        2.11212733149177       -0.06591557391848
H            3.55513134745762       -1.63558113245427        0.07782068368637
H           -1.67457670421148        3.07386932216237       -0.25744775248446
H           -3.08575952301931        1.99039781966096       -0.60821400209907
H           -2.63347323719823        2.26794146582805        1.06589417306571
H           -1.10755249530882       -3.04398637283392        0.95689766369171
H           -0.99891251578589       -3.25321729850525       -0.83194411151926
H           -2.49823460267791       -2.69021825053783       -0.10048292172112
H            1.41564307907302       -2.93543127421636        0.02935549806224
