25
 energy: 103.647735087229 xtb: 6.6.1 (8d0f1dd)
C            3.36856153065200        1.13913890900280        0.10938331179759
N            2.41216192241837        0.06256598091722        0.08348427215061
C            2.72597125292511       -1.22818113054057        0.06334375019179
N            1.59360281535678       -1.96436110018396        0.06673464004268
C            0.47969412650618       -1.09240363756628        0.06625414276890
C            1.05743118362975        0.20743375883545        0.09836991133884
C            0.29722266213322        1.47038463178205        0.09831618047915
O            0.84540775007089        2.57970134738224       -0.01075686306655
N           -0.98549876876935        1.23684031382823        0.29928290736347
C           -2.00981549949754        2.19526938821185        0.18429006116838
C           -4.13001635562840        0.34754134376008       -1.23072053864981
O           -4.35040324101201       -0.74519550579774       -1.04647955054546
N           -0.76776914583831       -1.36291654870959        0.02194494877573
C           -1.30119566623916       -2.68606543376157        0.03938717060360
H            3.88469992314640        1.15944301554214        1.06985239683847
H            4.10299157482036        1.00756664306520       -0.68490249254787
H            2.82372906774295        2.07617229717468       -0.02869246248726
H            3.72263098492062       -1.62172029928537        0.05130927196969
H           -1.71365504067527        3.09189732569516       -0.37521724896188
H           -2.85484694413022        1.70477226077367       -0.33386107956512
H           -2.35646222436685        2.47725369082186        1.18917446434383
H           -1.11303185688831       -3.21825043782429        0.98244785070824
H           -0.90967838317659       -3.31066033591339       -0.77607503483362
H           -2.37977845208998       -2.59450500617483       -0.08814078399872
H            1.55680006879244       -2.96794986656251        0.02289791202647
