25
 energy: 87.738156644887 xtb: 6.6.1 (8d0f1dd)
C            3.29044037532412        1.13403919092899        0.10362486657074
N            2.27894841533684        0.09645152806206        0.06246772157776
C            2.60708154549114       -1.19772016167170        0.10843391496035
N            1.49735889348611       -1.97624021888528        0.04104077695693
C            0.36356247062689       -1.12914127359701       -0.03111319238333
C            0.89327868660637        0.18695140634441        0.02285643548910
C            0.02178724599018        1.30257765203767       -0.04701405077243
O            0.47536796249618        2.46099128891715       -0.01326234026438
N           -1.45563604185178        1.02771780542974       -0.08513236150216
C           -2.22496700457623        2.24808529557989        0.13762362068156
C           -2.51213491015958        0.31339271284059       -0.85288909384955
O           -3.50444027597213       -0.32332439691576       -0.78253525241485
N           -0.89614238769444       -1.36455262676858       -0.08057301808846
C           -1.34855599514594       -2.71471261101087        0.01282430694979
H            3.84553674532223        1.11726365657917        1.04745677180914
H            4.02625063305172        0.98157914323801       -0.68818429659113
H            2.81590536654249        2.10703956676577       -0.02649974585321
H            3.61399064846601       -1.57301589099831        0.07720156631904
H           -1.79528305605143        3.07906110854960       -0.41100052153423
H           -3.21783324955929        1.98830280355467       -0.25252642406950
H           -2.37746929341178        2.43295415536735        1.20465904518942
H           -1.10375849730082       -3.11689116627827        0.99674771285718
H           -0.87779468459520       -3.32466312845165       -0.75210910681218
H           -2.43527597345610       -2.71841360907344       -0.13007164024161
H            1.54781403590047       -2.97733052762415       -0.00639503335561
