25
 energy: 33.057990788715 xtb: 6.6.1 (8d0f1dd)
C            3.28612276843587        1.15053258106635        0.09268646661687
N            2.27828042538341        0.11493585301811        0.08224855147562
C            2.57231627636287       -1.22389007252703        0.10993768841274
N            1.40565497198021       -1.94410258004689        0.01741833218860
C            0.33747528213835       -1.07958619461832       -0.06126172096594
C            0.87581546454286        0.20650940471933        0.00378596588953
C            0.03804363911918        1.31581244925943       -0.10130228406956
O            0.42352982394980        2.49125706667872       -0.05474202681118
N           -1.47142542181806        1.02855056136482       -0.13240292124592
C           -2.25478891699649        2.21546766892270        0.08955732578924
C           -2.18103863128859       -0.02040634925023       -0.54223980806864
O           -3.23742541243685       -0.37557018578541       -0.94024033670056
N           -1.00551295247464       -1.28503194292778       -0.19550678969944
C           -1.39540283968241       -2.66182763685618       -0.01448977067359
H            3.84368809174835        1.16725752961780        1.03996392545549
H            4.01561716368719        0.98419991307323       -0.70881235811185
H            2.78830082276427        2.10946390087286       -0.05225012105818
H            3.56394876231949       -1.62858008658921        0.06583579047228
H           -1.71821808046286        3.07378271466953       -0.32917047976774
H           -3.15803474185359        1.99025326414160       -0.47009527434977
H           -2.53654113862432        2.33591474408954        1.13928523666991
H           -1.11298785500859       -3.00882379206797        0.99276083720686
H           -0.94270044481711       -3.28461729609669       -0.79094588007359
H           -2.47255604333033       -2.73215726336099       -0.11318954139210
H            1.45706868948871       -2.95026044641367        0.01276290293252
