25
 energy: 66.627682585994 xtb: 6.6.1 (8d0f1dd)
C            3.29107888463030        1.13996752854301        0.10468140872076
N            2.27935993679931        0.10624355321345        0.07187496351755
C            2.59859811092050       -1.21193777291071        0.11748638244168
N            1.45621997960948       -1.96590574968137        0.03421890165918
C            0.35620267097932       -1.11453308202107       -0.05001291694151
C            0.88570971208968        0.19277642090852        0.02443207702774
C            0.03925390827887        1.30143516218479       -0.06648152618316
O            0.45162864763668        2.47212588500600       -0.02545165703286
N           -1.48916788103183        1.02329608432856       -0.10174606139818
C           -2.24417570958952        2.24613678952303        0.11884560354467
C           -2.37144140205393        0.16979738901964       -0.65751851019814
O           -3.41248808392088       -0.33973122350553       -0.86173963780637
N           -0.93663886030701       -1.33736673817981       -0.13331530086549
C           -1.36506278378430       -2.69634490247146       -0.00137290166985
H            3.85231794233351        1.12790790255613        1.04775260704425
H            4.02153530221672        0.98985630206779       -0.69531319641562
H            2.80870137843449        2.10887328794635       -0.03180354681039
H            3.59795262679740       -1.59534274912862        0.06802579235604
H           -1.76246526433487        3.07432164035742       -0.39938468767739
H           -3.20995295178257        1.99434866206248       -0.32399116700048
H           -2.43834973511433        2.41125063270698        1.18328863044998
H           -1.10914419599821       -3.07505393599553        0.99166259067174
H           -0.89943153776347       -3.31432878191982       -0.76668634180757
H           -2.44767575536708       -2.73027500619815       -0.13198468528939
H            1.51137012905082       -2.96829232314912       -0.00071711619858
