25
 energy: 130.625557490172 xtb: 6.6.1 (8d0f1dd)
C            3.15496850851940        1.06987578448369        0.15739632882442
N            2.27995455645101       -0.06322231275706        0.07063746924010
C            2.62092674960900       -1.36080927716723        0.01521816317347
N            1.50017475737348       -2.11944507972299       -0.04229788224260
C            0.42591201209766       -1.29295361380080       -0.01697716694847
C            0.89039106417890        0.03103363472944        0.05718390652956
C            0.09299179624452        1.16633720875741        0.07341138101244
O           -0.93682408915822        4.28392335129239       -0.05701340151504
N           -1.25952938695727        0.84648491328970        0.02690413205653
C           -2.11960936378797        1.85958630064017        0.04530102448375
C           -1.80052753035495       -0.48080512050375       -0.01575396262694
O           -2.99497839655704       -0.68532739595263       -0.02294960052424
N           -0.90656510791767       -1.54900584551136       -0.04551715077659
C           -1.40700548739399       -2.90689906569776       -0.13023867185829
H            3.47411004192657        1.23780577759334        1.18879299027454
H            4.03425581404304        0.92053010867165       -0.46765526062360
H            2.59654604683081        1.94549803571388       -0.17408587775470
H            3.61851403583929       -1.74563691061982        0.01110475675535
H           -1.36816287797778        5.10194092388787       -0.27781771963424
H           -3.17110292543963        1.61657464160597       -0.02794713600716
H           -1.67093491355523        2.91599731536188        0.01422648683619
H           -1.04241559191429       -3.49946269997341        0.71161237023207
H           -1.09882697404614       -3.36909967046760       -1.07020069589852
H           -2.49459251866345       -2.86517062943347       -0.09565937085123
H            1.50279165868688       -3.12712715967897       -0.09561722373194
