25
 energy: 145.026602895813 xtb: 6.6.1 (8d0f1dd)
C            3.16068191172215        1.12584797866642        0.18311130986945
N            2.26345752157688        0.01018296990575        0.05954429507215
C            2.59428110454537       -1.31191516855085        0.04086119169989
N            1.45211899229288       -2.03074370426363       -0.03088286672682
C            0.39745733285878       -1.17962415791934       -0.02088290283365
C            0.87482287526282        0.15080398380369        0.04803272223861
C            0.06955023240907        1.29980595859972        0.06258566783351
O           -0.74872405596090        3.77328716524007       -0.15316536225267
N           -1.29779573798162        0.91724041738765        0.01855907103977
C           -2.16289642018593        1.90679169663675        0.21236477382487
C           -1.83019922962184       -0.41101179758968       -0.05537387785504
O           -3.02850491256388       -0.60918081796287       -0.07175043740907
N           -0.92841199392266       -1.46513880618401       -0.06530382006194
C           -1.37507116993089       -2.83922018807396       -0.12833708030424
H            3.38869469586385        1.31325583374351        1.23622664975951
H            4.07712734694462        0.92129658132373       -0.36987594552353
H            2.64944047738926        2.00427758804958       -0.20465277139818
H            3.58637883654915       -1.73089560386031        0.01351648587823
H           -1.53891711654532        4.47548083145526       -0.43586464663330
H           -3.21669573669085        1.86810068963373        0.06071792079959
H           -1.61535518716991        2.89229407640536        0.38688891572927
H           -0.96696466727257       -3.42349751282627        0.69993615236845
H           -1.06513943873731       -3.30193558122962       -1.06930732268199
H           -2.46065696498701       -2.85573029245496       -0.06634006139667
H            1.41370066697232       -3.03982129393528       -0.06646659245607
