25
 energy: 140.051127788501 xtb: 6.6.1 (8d0f1dd)
C            3.16252205942149        1.11927877741131        0.18432247966099
N            2.26431406037343        0.00263229089139        0.05923128357147
C            2.59096905071553       -1.31345125839161        0.03320477127496
N            1.45758484050956       -2.03913060214233       -0.03689216005103
C            0.39834031347912       -1.19208149042009       -0.02046606174077
C            0.87545010319829        0.13865404423944        0.04868870837221
C            0.08414628764340        1.29523852081704        0.06818745925171
O           -0.78448356618436        3.83466851731033       -0.14240334555378
N           -1.28368365355631        0.90934133354303        0.02314308561586
C           -2.15949244557836        1.87652363801091        0.22416267453220
C           -1.82454611694153       -0.42668823387689       -0.03850347685287
O           -3.02235366837260       -0.62412932570392       -0.04944362181354
N           -0.92582938546558       -1.47827160229880       -0.06087029239259
C           -1.37719917938225       -2.84790983983748       -0.13143868088301
H            3.40429713599114        1.30896988378683        1.23472363182167
H            4.08213958355131        0.91422624979215       -0.36031161567274
H            2.65411149897518        2.00617689199922       -0.19394904389650
H            3.58469287060490       -1.72157820370873        0.00944433852522
H           -1.49184003769305        4.57686943416961       -0.40298148409194
H           -3.20681306586566        1.80362335505493        0.08845420484324
H           -1.64164037851170        2.88933265789215        0.25557826723488
H           -0.96191596850778       -3.43060689992984        0.69424942932757
H           -1.07279896295634       -3.31041932796134       -1.07366502299551
H           -2.46127519885095       -2.87344883786864       -0.06416990372342
H            1.42888626326132       -3.04732574085963       -0.07096094463038
