25
 energy: 132.192957999049 xtb: 6.6.1 (8d0f1dd)
C            3.15811490301550        1.06410195090615        0.16057433367473
N            2.27832340364183       -0.06336227701393        0.06711795646195
C            2.62368103288090       -1.36729473477882        0.01309595938577
N            1.49513190263003       -2.12057525823623       -0.04193054206249
C            0.42582715504063       -1.29048329928971       -0.02060962097382
C            0.88838499264489        0.03095835854251        0.05048647978729
C            0.10774405283468        1.18018842677487        0.07671196486721
O           -0.95866742039274        4.26864656360673       -0.04750387424960
N           -1.24639274558670        0.85926972421144        0.02882640270075
C           -2.11961309540238        1.86395076509912        0.07445916718035
C           -1.79234080444163       -0.47492348224515       -0.02121896626086
O           -2.98726762558185       -0.68414174882814       -0.02555217699580
N           -0.90797752637208       -1.54878754119929       -0.05096846497389
C           -1.41033536584092       -2.90541272717380       -0.13254089126371
H            3.47536442776939        1.22068126401364        1.19594278685241
H            4.04334205319277        0.90517971639463       -0.45670312907639
H            2.60793714443644        1.94384631443951       -0.17087978277595
H            3.61729752725862       -1.76414741082967        0.01116706775623
H           -1.39089533864090        5.10093037147545       -0.28905969718866
H           -3.17552927437264        1.58451457602691       -0.05316686689068
H           -1.65619830328526        2.98605154675841        0.01710245270046
H           -1.04738293201669       -3.49548404994959        0.71030011137808
H           -1.10359784314345       -3.37538113351271       -1.06992936375676
H           -2.49757039625089       -2.86417728058940       -0.09440594578158
H            1.48470618445912       -3.12711063424863       -0.09525221623909
