25
 energy: 26.777716017082 xtb: 6.6.1 (8d0f1dd)
C            3.20007412661550        1.15441883717706        0.15187571194124
N            2.26294934376054        0.08454422790124        0.06376925349799
C            2.57972440745610       -1.26885393250048        0.05732659212667
N            1.39810725337032       -1.96272246773968       -0.02799669764265
C            0.38242867084112       -1.07158180226372       -0.03539291901894
C            0.86186731881073        0.25244179952367        0.00697885681548
C            0.01873190670849        1.44437584803731       -0.06260129648254
O            0.18741695324097        2.70071210668594       -0.08202539486851
N           -1.34339708055019        1.05457772695484       -0.14610583433868
C           -2.18294602270547        2.32056332847332       -0.11709673455450
C           -1.85947579639389       -0.24300712725987       -0.07522179522734
O           -3.04505646771960       -0.49667119655018       -0.02033776226072
N           -0.95108145338002       -1.35067208040151       -0.05379372218859
C           -1.42647585284058       -2.72152308965887       -0.10101749497078
H            3.57035118888510        1.27740614767969        1.17808597634397
H            4.05334901494895        0.98313436835602       -0.51502054242091
H            2.66293146552149        2.04669025995968       -0.16344575146522
H            3.55433854128073       -1.71708827261737       -0.01097406390527
H           -1.84716510422234        3.43238048131544       -0.67287823967200
H           -3.14134317596399        1.94120511391461       -0.47493546650514
H           -2.23296752790956        2.71053224066263        0.90117191077471
H           -1.07960540510559       -3.30426885759243        0.75933263567326
H           -1.09790999310190       -3.22569656134643       -1.01634395747143
H           -2.51454339772941       -2.70287690831093       -0.08462388267168
H            1.35923717305177       -2.97189936665028       -0.08225611555095
