25
 energy: 63.505861774942 xtb: 6.6.1 (8d0f1dd)
C            3.18915101076602        1.15404908357625        0.16106086533523
N            2.25087726186218        0.09616510259079        0.06290104408389
C            2.58145577268317       -1.25980248310320        0.07131095248112
N            1.40807932272142       -1.96679403201409       -0.02594492891290
C            0.39147033397709       -1.07597487777952       -0.03745034829349
C            0.85190555127066        0.26225256458304        0.00291263701898
C           -0.00288494843813        1.46099436757350       -0.04892481967652
O            0.08422063956510        2.75269046741484       -0.05794051222232
N           -1.35572696354342        1.02900765961807       -0.12144616379992
C           -2.18885282443790        2.27694126845517       -0.06064364191933
C           -1.85221018226466       -0.27837651243771       -0.06752210219865
O           -3.03560674745049       -0.53891519003474       -0.00699205120671
N           -0.93971963125593       -1.37188011451922       -0.07051609079302
C           -1.40754866743917       -2.74771025387888       -0.11051723686967
H            3.52019257664165        1.29845649780148        1.19725824972054
H            4.06493974081639        0.96506504679901       -0.47003773982481
H            2.66498339687266        2.03630601369599       -0.19419116069183
H            3.55697851766483       -1.68413634261302       -0.00639404546560
H           -1.95550286743916        3.67064830422206       -0.68736083790816
H           -3.18154520343893        1.94292609676835       -0.29927606929603
H           -2.02138144651697        2.80872304680633        0.85937473719189
H           -1.04833856217556       -3.33379865348148        0.74247796435908
H           -1.08387719495789       -3.24621033182921       -1.03057190497124
H           -2.49656714442166       -2.74344378647923       -0.08220836693079
H            1.38025599488173       -2.97485459762483       -0.07792145038087
