25
 energy: 2.483148053298 xtb: 6.6.1 (8d0f1dd)
C            3.22536000913241        1.16358270144418        0.11679937152970
N            2.28772932169856        0.08861258362756        0.03661534966639
C            2.59842891712776       -1.26414208416352        0.03109450143187
N            1.40302224381257       -1.94659156794534       -0.01650380703714
C            0.38874904117274       -1.05475106456904       -0.02014453939858
C            0.89364533684298        0.25785276657790        0.01679150959392
C            0.06928579657142        1.43899886819912        0.00401448535647
O            0.29469964856610        2.66122588324793       -0.00398771407977
N           -1.30653790065541        1.05320867892912       -0.04920908720818
C           -2.16052257439389        2.25234410010831       -0.09524945206215
C           -1.84127440197934       -0.21440349155788       -0.03921005323256
O           -3.03607967240174       -0.42973568184006       -0.04713809545814
N           -0.94716967502813       -1.31830951943892       -0.03983587212837
C           -1.45334719583962       -2.67516822584124       -0.07601994643623
H            3.65681284099601        1.24101934505028        1.12092146726617
H            4.03262765136041        1.01586404760541       -0.60605789093254
H            2.67800035883544        2.07484028230272       -0.11628364719636
H            3.57621227989703       -1.68846797063831        0.03139286955665
H           -1.63087682444798        3.22098106055540       -0.36420369910630
H           -2.97242261615159        2.00744587152073       -0.77923557206184
H           -2.60741746927283        2.38641874793776        0.88728892633212
H           -1.13273237495326       -3.24293742916891        0.80244805556568
H           -1.12623051149912       -3.19772282599884       -0.97983340770056
H           -2.54032827542974       -2.61710444850301       -0.07813246015090
H            1.34246532333107       -2.95344407915197       -0.04387122100888
