25
 energy: 115.305069518906 xtb: 6.6.1 (8d0f1dd)
C            3.17919456698559        1.14169880422525        0.17058866430555
N            2.25252620301794        0.07152886020575        0.05856504654198
C            2.58617708334230       -1.27209976002386        0.05326996988645
N            1.42063770200278       -1.97859749287932       -0.01922800316979
C            0.39138720901835       -1.08933291122789       -0.02955635437655
C            0.85886316820442        0.26319798762249        0.01967486206016
C           -0.00738592136824        1.47867261495676       -0.00614437469868
O           -0.02636185936068        2.79887369705098       -0.03391960100966
N           -1.35805914741551        0.96819063741623       -0.04650658561004
C           -2.21434236655561        2.04437395775312        0.08892855542845
C           -1.84245115211996       -0.34630682530588       -0.05851178653162
O           -3.03294255176338       -0.58175744824217       -0.03095685567297
N           -0.93133429307922       -1.40629135366525       -0.08385436467030
C           -1.38951733247030       -2.78319890371513       -0.11849979051740
H            3.46788782522417        1.30770980435176        1.21230382158334
H            4.07362659325685        0.94705562204307       -0.42666056934799
H            2.66516974726862        2.01424601067694       -0.22165446140568
H            3.56558882882475       -1.69794046491879        0.01179302413225
H           -2.00680785167802        4.23420946662313       -0.67305350900414
H           -3.23547902715103        1.89458358562891       -0.14218895272149
H           -1.82334519201008        2.85832871424313        0.66915226462388
H           -1.01772404574770       -3.36848077343681        0.72762974913088
H           -1.07202196923971       -3.27076299365041       -1.04499518358768
H           -2.47939359350262       -2.78497679959601       -0.07799603349699
H            1.37377995757760       -2.99014552640851       -0.06315997551718
