25
 energy: 137.457045457726 xtb: 6.6.1 (8d0f1dd)
C            3.16625567723710        1.08438336222559        0.16348634805667
N            2.27772389048136       -0.04397848466628        0.06274820631910
C            2.60664204376457       -1.34156600904197        0.01001375724572
N            1.48110013213220       -2.08915601351011       -0.04126515138923
C            0.42014650296324       -1.25116415500810       -0.01821776351139
C            0.88676124119489        0.07019237268533        0.04814261505740
C            0.11920083890758        1.22974486622010        0.09438360000308
O           -0.96881236946101        4.03644685029851       -0.15827866819270
N           -1.25871023688449        0.87492993285849        0.08001312531332
C           -2.17515649098465        1.82829073095321        0.17081186937825
C           -1.79292928995662       -0.46985702691460       -0.00543637076895
O           -2.98768539977590       -0.67760481045639       -0.01350918430742
N           -0.90379946117929       -1.52504719814167       -0.04055635120176
C           -1.40425783008958       -2.87326884324937       -0.12784692453059
H            3.47403390885578        1.26796029511765        1.19994584997421
H            4.05901195574898        0.93118659481536       -0.43899176077937
H            2.62594268931791        1.96854783326804       -0.17970950087600
H            3.59775028884806       -1.73282964335361        0.01003241983406
H           -1.22201121889378        4.98060031007888       -0.28883115105911
H           -3.24570037165215        1.65938308185421        0.12191260778868
H           -1.71956252524733        2.87835961825642       -0.12359911400717
H           -1.03966651864454       -3.44968333693877        0.72141916243428
H           -1.09913746979663       -3.34794023383845       -1.06265840659146
H           -2.49124360106135       -2.81417050513463       -0.09130467819661
H            1.46539927500428       -3.09323960610804       -0.09373182207244
