25
 energy: 38.857710672955 xtb: 6.6.1 (8d0f1dd)
C            3.19188877304098        1.15552622590776        0.15506304431123
N            2.25302600526259        0.09312873065295        0.06066451961681
C            2.57606043522065       -1.26040696791030        0.07149297327644
N            1.40025733138885       -1.96252817444396       -0.02798968718863
C            0.38506349192227       -1.07130691958235       -0.04527527764029
C            0.85242773293894        0.25971830295344       -0.01270119322581
C            0.00517799295260        1.45751215885975       -0.07186559623641
O            0.12727618252164        2.73360482905998       -0.04966140550160
N           -1.34816972171470        1.04416325185607       -0.14438237113667
C           -2.18067044802880        2.30677021031611       -0.09351505435660
C           -1.85596950600879       -0.25831892615691       -0.07987924658787
O           -3.04020947101114       -0.51479729263847       -0.01287357708334
N           -0.94587580255696       -1.35996879808180       -0.06578834654460
C           -1.41642591795672       -2.73381855106300       -0.10298467914164
H            3.53678778694188        1.29124984947543        1.18901427542871
H            4.06006599469138        0.97235224509850       -0.48946982727893
H            2.66254804149040        2.04133226357785       -0.18680618923501
H            3.55099481654705       -1.69959638676931       -0.00314722171928
H           -1.89907137335560        3.49393556617919       -0.68174670684339
H           -3.15262492950187        1.95454736809149       -0.40220280480861
H           -2.12527201896906        2.75704539460348        0.88866663959504
H           -1.06068912580625       -3.31444898438417        0.75529685714370
H           -1.08977516950457       -3.23739663945531       -1.01912341764698
H           -2.50489049810709       -2.72451669050776       -0.07952715246735
H            1.36960516165474       -2.97126221650276       -0.08166534165082
