25
 energy: -5.280499036119 xtb: 6.6.1 (8d0f1dd)
C            3.23864769667381        1.17420530136660        0.09701510959994
N            2.30188466862425        0.10525203048935        0.03759185083155
C            2.60242543739351       -1.24206281736979        0.03180237964288
N            1.41860421270689       -1.93924798406680       -0.00359133918023
C            0.40018258100095       -1.05652014535941       -0.01107335315309
C            0.91386973818700        0.23914476237901        0.01606370608526
C            0.09836989738060        1.40443639747528       -0.00286114424212
O            0.42724171165261        2.59696819331021       -0.00830293855657
N           -1.27834969671225        1.04747398707676       -0.02738556391781
C           -2.19286685678332        2.18385008324395       -0.06024008779208
C           -1.82370523622234       -0.20325189900855       -0.03841414345760
O           -3.02142891497570       -0.39823168367147       -0.06237627934296
N           -0.93850027531551       -1.30608493238105       -0.03621195920327
C           -1.46434843265534       -2.65297589390769       -0.06500839340216
H            3.70048908632022        1.22768866650375        1.08719843406793
H            4.01946346732906        1.03084583496579       -0.65275272537221
H            2.69191080751557        2.09425429416780       -0.09825780088261
H            3.57845099365798       -1.65968198911461        0.03952691847080
H           -1.64029638818372        3.13721263154862       -0.13067804040433
H           -2.87190971720385        2.06383443375623       -0.90099929700424
H           -2.79236002866715        2.18057363940164        0.84336052058430
H           -1.15676906114008       -3.21161545118914        0.82260314825660
H           -1.13719598586311       -3.18238289325500       -0.96359726906790
H           -2.55052200006494       -2.57488789046586       -0.07592493652331
H            1.36332624312673       -2.94482434825364       -0.02209763329381
