25
 energy: 130.154735187928 xtb: 6.6.1 (8d0f1dd)
C            3.15319400506314        1.07407498799373        0.15809036159169
N            2.27816402882242       -0.05927273509810        0.07129487662066
C            2.61792745366866       -1.35483315165252        0.01375755262832
N            1.50109832009594       -2.11801920445433       -0.04405645801505
C            0.42410397164543       -1.29379950532760       -0.01662222886933
C            0.89084994798050        0.02981676911660        0.05854240002526
C            0.08567904363062        1.15735927527815        0.06985013179962
O           -0.89586962286446        4.35674160696172       -0.03798601480802
N           -1.25911248281348        0.84002258616758        0.02863540078286
C           -2.12913569103417        1.84361705654974        0.02655079998299
C           -1.80513893843698       -0.48985440016537       -0.01256343426602
O           -2.99993509902519       -0.68839423113633       -0.02053215574533
N           -0.90777539317417       -1.55219031949696       -0.04905032511970
C           -1.40561691827417       -2.91068079986914       -0.13195312270513
H            3.46902838202326        1.23888908117740        1.19067728336368
H            4.03547287364497        0.92477934796203       -0.46393997854150
H            2.59679645998507        1.95026209890317       -0.17482461191420
H            3.61616941312202       -1.73619067171201        0.00750097206676
H           -1.33404402179448        5.16092298508902       -0.31149047925332
H           -3.18231142540318        1.61599583109172       -0.00501939135858
H           -1.70660408272339        2.86890527857077        0.02165132971835
H           -1.04066078464788       -3.50080099016216        0.71062516187635
H           -1.09640039188364       -3.37290162915229       -1.07173199249313
H           -2.49292673098978       -2.86950014299617       -0.09588842478326
H            1.49926198835537       -3.12592033489439       -0.09448374038938
