25
 energy: 137.357975423913 xtb: 6.6.1 (8d0f1dd)
C            3.16877214323428        1.09591437966234        0.17217837763967
N            2.27233417891980       -0.02687076672668        0.06218843967875
C            2.59482405363492       -1.32542615206820        0.01280266811438
N            1.47242699148153       -2.07213510206068       -0.03962393415916
C            0.41069010216424       -1.23228581308864       -0.01669055218363
C            0.88017200281153        0.09230219882385        0.05071224660307
C            0.10706504463847        1.25090452640689        0.09362434462558
O           -0.93368473060099        3.97998593187503       -0.15575830321288
N           -1.27539116599942        0.89342994696107        0.07699107708718
C           -2.18191119847496        1.85127913761493        0.19916288893616
C           -1.81001324841035       -0.46000036301888       -0.00826627852383
O           -3.00446573218916       -0.66685458297655       -0.02441693021979
N           -0.91334160043494       -1.50920622220755       -0.04439898371431
C           -1.39800729147237       -2.86242932372974       -0.12575092619444
H            3.47908605793959        1.28459671595966        1.21084549179087
H            4.06515573294571        0.93249693657434       -0.42026004661141
H            2.63762701071843        1.98232971267174       -0.17718106758449
H            3.58839736575221       -1.71470650823777        0.00700227232037
H           -1.33004605162229        4.88574096344986       -0.32074370657125
H           -3.24186914833737        1.71889789827318        0.12366990538235
H           -1.72485798026956        2.89830366772493       -0.08479791882545
H           -1.02885568494789       -3.43396261134936        0.72616653998282
H           -1.08635232555003       -3.33819295381177       -1.05755027959116
H           -2.48421949760770       -2.82380344359790       -0.09473597934428
H            1.45831136122205       -3.07677210330178       -0.09180811614101
