25
 energy: -2.248844146265 xtb: 6.6.1 (8d0f1dd)
C            3.23246018024579        1.16944701998177        0.10706158525998
N            2.29505104414898        0.09782871661581        0.03841667321192
C            2.60146159432040       -1.25244260473954        0.03173928919817
N            1.41193919136514       -1.94281153794224       -0.00978592922904
C            0.39603516308268       -1.05578258091409       -0.01654024704756
C            0.90492015062920        0.24905288485633        0.01760422774021
C            0.08573604840299        1.42143966946627        0.00894543568810
O            0.35987312409229        2.62973183793776       -0.00831246502312
N           -1.29169328978463        1.04540792758876       -0.02925291433533
C           -2.17238094525318        2.21622410595086       -0.07397075772870
C           -1.83278004445231       -0.21087301583588       -0.03189909704364
O           -3.02928068160354       -0.41456352389391       -0.05360882377497
N           -0.94192523127600       -1.31304421538884       -0.03678414713983
C           -1.45856395706029       -2.66455158756724       -0.07054009443436
H            3.67937687776645        1.23525908726163        1.10424494630304
H            4.02623605213242        1.02322147122345       -0.62962580397228
H            2.68468680112587        2.08464746155318       -0.10749258545399
H            3.57810694391525       -1.67397863400012        0.03665989593866
H           -1.62571636971403        3.17916642438177       -0.24507445113864
H           -2.92133352847029        2.03273610268009       -0.84154425615527
H           -2.70195184099125        2.28462336435258        0.86977634481801
H           -1.14500123423955       -3.22799859658850        0.81249356060132
H           -1.13115366344933       -3.19003378110528       -0.97184629672468
H           -2.54527061135068       -2.59610720037612       -0.07769710770354
H            1.35228009670248       -2.94905230158018       -0.03228709217480
