25
 energy: 137.185091937444 xtb: 6.6.1 (8d0f1dd)
C            3.15989349446513        1.07596375376739        0.16080425052707
N            2.27822556466816       -0.05363810941211        0.06870128324887
C            2.61458142679400       -1.35649424349916        0.01104963149711
N            1.48566979249214       -2.10573865822345       -0.04006959096063
C            0.42415436986882       -1.26964576217980       -0.01833495738726
C            0.88988276817203        0.05065179670818        0.05128666920504
C            0.12609987047971        1.20959949783171        0.09596344893545
O           -0.94940976634577        4.05202614040964       -0.14242202800514
N           -1.24488434399421        0.86279372075327        0.07055346169864
C           -2.14777017742112        1.82679985979459        0.15727109205990
C           -1.78847736638595       -0.47330249363054       -0.01206303269128
O           -2.98509709976325       -0.67693999898884       -0.01586862350623
N           -0.90306246283046       -1.53839505998524       -0.04336120322687
C           -1.40366030631100       -2.88795849522547       -0.13449119652491
H            3.46847190183912        1.25632319562689        1.19344525127030
H            4.04755493607398        0.92694392206627       -0.44854148780122
H            2.61285706694902        1.95660936436415       -0.18035522021516
H            3.60438578207604       -1.75203035270175        0.00877480588536
H           -1.16908369768703        4.98301836932284       -0.28856472629422
H           -3.21181497646105        1.60489191092426        0.07301184233405
H           -1.64603806059906        2.99609854733032       -0.09605861363452
H           -1.03602390671631       -3.46926470702055        0.70953898302096
H           -1.10089142921945       -3.35675938748255       -1.07397395535103
H           -2.48869784727950       -2.83634210513495       -0.09388580180125
H            1.46475836239735       -3.11063906089279       -0.09216204696843
