25
 energy: 134.884938053798 xtb: 6.6.1 (8d0f1dd)
C            3.16104133479447        1.06892586789906        0.15996795836885
N            2.27944049231043       -0.05675415497316        0.06666943877222
C            2.62263792276094       -1.36493619813980        0.01258713762283
N            1.49024941125686       -2.11599081419218       -0.03976247034095
C            0.42775696089939       -1.28104678026504       -0.01859194103994
C            0.88920313422548        0.03897063237788        0.05040327652154
C            0.11860010593574        1.19566508788249        0.08558165401472
O           -0.94591560227366        4.12869966924081       -0.07312478407395
N           -1.24525141397277        0.86290612893160        0.04841967190484
C           -2.14024952535110        1.83928778831377        0.12444094193664
C           -1.78543568214428       -0.47139245616892       -0.01983521054013
O           -2.98041068340273       -0.67938258390813       -0.03011668692617
N           -0.90460798523377       -1.54350534741242       -0.04779504942142
C           -1.40506451066085       -2.89757811653360       -0.13150078752034
H            3.46352676648129        1.23334139610756        1.19707360521464
H            4.05050695341625        0.91308470061978       -0.45448462529301
H            2.61243205254391        1.94860688548850       -0.17789030794063
H            3.61427527056184       -1.76327570663015        0.01087031093618
H           -1.25713549547098        5.01627973542885       -0.29191542039290
H           -3.20628385674398        1.59390823553429       -0.00569198432969
H           -1.63634393946206        3.06976291708230       -0.00576842809750
H           -1.03455184097392       -3.48429142986473        0.71021997390165
H           -1.10576772320184       -3.36596572096045       -1.07356010771961
H           -2.49051898084141       -2.85294178808671       -0.08897902212228
H            1.47209023190365       -3.12123982385068       -0.09404765231097
