25
 energy: 126.121504369603 xtb: 6.6.1 (8d0f1dd)
C            3.17653768715156        1.13954629448991        0.17740871215358
N            2.25700537925133        0.05872409422669        0.05759179131925
C            2.59029389878126       -1.28193841028659        0.04599560447968
N            1.42746052685052       -1.98139372189072       -0.01940063011860
C            0.39190638171259       -1.09569264620797       -0.02591156406663
C            0.86311222494780        0.26463405699563        0.02723654476946
C            0.00004705795071        1.48966256383872        0.01304649028332
O           -0.06424649827284        2.82916807694514       -0.03173631604630
N           -1.35600961023195        0.95386082333625       -0.01133038282851
C           -2.20150536263067        2.00632029278938        0.14626628630455
C           -1.83909447762103       -0.36799743454193       -0.05019501360603
O           -3.03266193266363       -0.59285349884934       -0.04673104400377
N           -0.92956660614866       -1.41926065606228       -0.07935822836373
C           -1.38092170486351       -2.79850646766985       -0.12140123224584
H            3.44312995942143        1.30845704818767        1.22280433066922
H            4.07676622668710        0.93938495923261       -0.40549811169484
H            2.66499038196045        2.01045379792785       -0.22239557354139
H            3.57248933753705       -1.70868621278977        0.01689318965127
H           -1.97808750486112        4.40238702797525       -0.63197222271900
H           -3.22557013398535        1.90280535962180       -0.06635241294768
H           -1.74353250158185        2.87529987568174        0.62648664489310
H           -1.00120296309608       -3.38676351989250        0.71906365036893
H           -1.06595165020075       -3.28039500099029       -1.05222324465378
H           -2.47067366154653       -2.80740863036083       -0.07518282871135
H            1.37333059827050       -2.99595049925242       -0.05849899030514
