25
 energy: 19.433529644170 xtb: 6.6.1 (8d0f1dd)
C            3.20665748882616        1.15284920321707        0.14598833820648
N            2.27260597087628        0.07525866730768        0.05919256912090
C            2.58694857566141       -1.28107239710035        0.04852205007080
N            1.39705650576781       -1.96115570102623       -0.02897709211187
C            0.38114109829492       -1.06856657785626       -0.03684484094197
C            0.87115369781125        0.25063971511085        0.00918580802605
C            0.02343414518619        1.43278745476802       -0.05947831749622
O            0.17419055734070        2.67445424482340       -0.05267572878926
N           -1.34406076277069        1.05350541518084       -0.14610425878115
C           -2.18204762295386        2.32076918973715       -0.13694651975371
C           -1.86413067207433       -0.23643771201890       -0.08265750114887
O           -3.05045089307602       -0.48360153026859       -0.03020074673749
N           -0.95387162481673       -1.34197181647309       -0.05380168679303
C           -1.43460337514286       -2.71038970691762       -0.09460059336606
H            3.59237286689310        1.26599948340518        1.16704748746439
H            4.05020015764855        0.99286351130017       -0.53497235762334
H            2.66463657443086        2.05033281377059       -0.14815735741831
H            3.56398219678898       -1.72491263126619        0.00634717983759
H           -1.78535693379159        3.37122864463047       -0.64205293737896
H           -3.12485790041175        1.95295114009037       -0.55028048731090
H           -2.32220059259157        2.64054930276998        0.90189532711786
H           -1.09436352351408       -3.28780274643982        0.77169403471547
H           -1.10699093726028       -3.22187093228184       -1.00586764734145
H           -2.52226761624789       -2.68122277347963       -0.08225769630944
H            1.34686057045125       -2.97078944317719       -0.07411784043687
