25
 energy: -42.128058554638 gnorm: 0.006056402555 xtb: 6.6.1 (8d0f1dd)
C            3.06555696225741        1.02674926802646        0.19511107415280
N            2.29023713104320        1.93426449011523       -0.62567924140730
C            2.39633132272643       -0.30585120163689        0.17417430925131
N            0.75404285601165       -2.79741566456143       -0.28834468846252
C            0.28206118125510       -1.63497349275878       -0.10116187436771
C            1.05029871607776       -0.37551239620583       -0.03149353134495
C            0.30969104734170        0.84690103874454       -0.11016664199701
O            0.92621072629852        2.01431152401994       -0.22757034049967
N           -1.01282965305281        0.85341695723102        0.01282704547882
C           -1.78655182405565        2.08086055780637        0.02233368179471
C           -1.77749724501010       -0.34534043715222        0.14272432711580
O           -2.96164289947812       -0.26776071914766        0.30434757617938
N           -1.08334757972988       -1.51972853400543        0.04227830818163
C           -1.84501333263172       -2.75730259720265        0.03773518539742
H            3.19214994791138        1.36775706862645        1.23940791793526
H            4.05849754643892        0.96754510605138       -0.25730852601564
H            2.62788615720361        2.89420407300523       -0.64271486241894
H            2.98436399367041       -1.18507872476015        0.37675102671112
H           -1.12318990043151        2.93597856395982       -0.05549032965417
H           -2.48974121997599        2.07038931005445       -0.81113874472422
H           -2.36630789007067        2.13205917317801        0.94461768784429
H           -1.54696170067684       -3.37403202218143        0.88480980606196
H           -1.62747964852652       -3.30741260595791       -0.87749055448474
H           -2.90394435333966       -2.51964532147885        0.09904174511271
H            1.74761117284491       -2.91614487216995       -0.41642873793988
