72
 energy: -99.709163121694 xtb: 6.6.1 (8d0f1dd)
N           -1.61722560264976        2.89838533301457        2.31270105377464
C           -1.57565338923796        2.19197364487256        1.27172462629560
C           -2.71676776686894        2.06690040247419        0.29736208508702
C           -3.28186597993790        0.65524950428684        0.36318487038285
C           -4.24982571815434        0.25348178704492       -0.56033139222749
C           -4.81203189676619       -1.00760792330645       -0.51614591016914
O           -5.77442817541579       -1.46862699916701       -1.36514623180772
C           -6.33206241905884       -0.58103012476759       -2.29950620918666
C           -4.39236216005666       -1.92600304495246        0.47168527252238
O           -4.99984683009207       -3.14630220445905        0.43148223761189
C           -4.68377793906351       -4.08865912467102        1.42293867556747
C           -3.43286194419938       -1.52962112451624        1.38336644563400
C           -2.88905819320006       -0.25046988520688        1.33116944645189
C           -2.12752553289047        2.32940630739631       -1.11514297508215
C           -1.25447744749228        1.19335834249026       -1.68447351154426
C            0.06373211225673        1.10273192095971       -1.01553706084704
N            0.65493042154453       -0.07658059647817       -0.60505507536077
C            2.03022982624602       -0.08354763636540       -0.21806773169412
C            2.97732296973970       -0.62939172390494       -1.31270680317152
C            4.39534906183588       -0.49786008653958       -0.86076161350388
C            5.07764242549756        0.69136267046198       -1.05320141645539
C            6.37531958706277        0.92820729196129       -0.61049755585001
C            6.99099968609510       -0.16263447424312        0.04942960570280
O            8.26268223134438       -0.20366688805856        0.54217737622078
C            9.02650329590932        0.94404242081968        0.31629411886400
C            6.30045120524017       -1.40119096568899        0.26905013431055
O            6.97394295076820       -2.40779040476805        0.92829062878584
C            6.34250680695085       -3.65735002301995        1.15236291757965
C            5.00501698190504       -1.54520238250407       -0.17737242881783
C           -0.03349269509306       -1.33296112446617       -0.69102197723256
C           -3.87691769719338        3.06572692511144        0.57172457212988
C           -4.56743973761263        2.77435659804415        1.90299203056644
C           -3.43005489036797        4.52607521024206        0.53572393005131
H           -4.57080476529614        0.94708200760679       -1.31999144713609
H           -6.77449906249777        0.29465881249328       -1.81242709484810
H           -7.11574811753595       -1.14471534444785       -2.80381278846818
H           -5.59437355125522       -0.25124398829566       -3.03935781187606
H           -4.91287828305652       -3.71428956952107        2.42648430051972
H           -5.31083263013120       -4.95365679750688        1.21102994916848
H           -3.63067984569559       -4.38782251325257        1.37982329259108
H           -3.10007074541554       -2.20519566907841        2.15590787986548
H           -2.16178970967296        0.03262875102350        2.07628993155926
H           -2.95067228011877        2.51135287068508       -1.80879866544041
H           -1.52239791139790        3.23707030682888       -1.07633091902937
H           -1.79780016986109        0.25193255677559       -1.61824405629435
H           -1.11197939520863        1.41605774961470       -2.75418912536083
H           -0.68462934826246        1.64118001442335        0.92979845227747
H            0.71146389515206        1.96092056603740       -1.04101180734712
H            2.14336560540934       -0.69155507537906        0.68766406906038
H            2.33567098770287        0.93721551220570        0.02224944688872
H            2.82312340712548       -0.05017612324445       -2.22291612496602
H            2.72501355167446       -1.67150075243420       -1.51470972591973
H            4.58152775404668        1.48718846910387       -1.58366929389873
H            6.71265647064390        1.98538935548551       -0.85969361062825
H            8.55128261215742        1.80734118441477        0.78971965860369
H            9.12592744285349        1.12330937889158       -0.75876800150340
H           10.00509830236680        0.76578518150014        0.75717428503845
H            7.07501081378000       -4.28619995501036        1.66403939562095
H            5.45770097045650       -3.58071484041963        1.79697267498701
H            6.05533937541789       -4.16421974095980        0.22279488521350
H            4.46028101771027       -2.46524185641521       -0.01529482764880
H           -0.20597439101026       -1.64905412767356       -1.72722235563309
H           -1.00041555510533       -1.26615068007104       -0.18513059562631
H            0.56356467322743       -2.09460619170610       -0.19236814352612
H           -4.61388266104467        2.92190260885327       -0.22799839757124
H           -3.86828305735352        2.92700769040758        2.71798159167232
H           -4.93111684216770        1.75006174771135        1.93667824702311
H           -5.41380254266510        3.44548690056496        2.03325500005320
H           -2.67354281301036        4.70259450191637        1.29340146232374
H           -3.03155537119203        4.80022416821980       -0.43768732824683
H           -4.28268090379789        5.16907895430270        0.74356321607026
H           -0.76407911379838        2.90619512779193        2.86915763963415
