  72
        -99.39103741
 N         -1.5351569569        3.0201474633        2.3048640170
 C         -2.1766305060        2.2233181739        1.6662824492
 C         -3.0908944474        2.0715173920        0.5628027812
 C         -3.6180002029        0.6443307418        0.4941462976
 C         -4.4861794931        0.2592088905       -0.5257303300
 C         -4.9627329750       -1.0393499849       -0.6070768782
 O         -5.8145563210       -1.4995578990       -1.5446907871
 C         -6.3383033690       -0.6074696131       -2.5001632058
 C         -4.5452904124       -2.0013645841        0.3532494836
 O         -5.0437908528       -3.2409143714        0.1846002489
 C         -4.7018122267       -4.2480338811        1.1084019687
 C         -3.6863970594       -1.6055114915        1.3663764468
 C         -3.2370113054       -0.2954083229        1.4376248819
 C         -2.3152479185        2.4273276843       -0.7404746571
 C         -1.4056881628        1.3111648020       -1.2483026242
 C         -0.3092519595        0.9340618075       -0.2453681979
 N          0.5839973996       -0.0596430094       -0.7967733506
 C          1.9631333304       -0.0159468642       -0.3594781019
 C          2.9200139018       -0.3727500048       -1.5123003247
 C          4.3467173543       -0.2654934044       -1.0608189112
 C          5.0348851897        0.9356595659       -1.1582750162
 C          6.3471269244        1.0423567758       -0.7265620175
 C          7.0026814294       -0.0533362192       -0.1810308383
 O          8.2745463199       -0.0688149845        0.2596743023
 C          9.0595413171        1.0945689991        0.1364114102
 C          6.3032984282       -1.2874581833       -0.0652718904
 O          7.0110588903       -2.2980293140        0.4767728934
 C          6.4166111532       -3.5682565900        0.5990103245
 C          4.9906159724       -1.3680518781       -0.5051501295
 C          0.0206018184       -1.3877421406       -0.8238677854
 C         -4.2963676953        3.0543335254        0.7876166068
 C         -5.0226105369        2.7182513891        2.0871811008
 C         -3.8861887921        4.5215438040        0.7702909879
 H         -4.7921715320        0.9818244837       -1.2645658172
 H         -6.8930916863        0.2078689570       -2.0255928186
 H         -7.0199124672       -1.1991734710       -3.1079885216
 H         -5.5517419099       -0.1941414619       -3.1395183617
 H         -5.0206745189       -3.9878047432        2.1221799059
 H         -5.2348265870       -5.1382871292        0.7807260768
 H         -3.6255927912       -4.4477476393        1.1029794670
 H         -3.3633024886       -2.3104291784        2.1148518560
 H         -2.5862562173       -0.0050699379        2.2522375206
 H         -3.0517598605        2.6556718110       -1.5114212772
 H         -1.7234616508        3.3255034591       -0.5623714570
 H         -2.0059403474        0.4331347477       -1.4852317050
 H         -0.9238240797        1.6455962249       -2.1683812209
 H         -0.7869858526        0.5580993855        0.6840733729
 H          0.2704569794        1.8326387483       -0.0154721232
 H          2.1409494204       -0.7016401495        0.4831930527
 H          2.2008458249        0.9953451783       -0.0237817494
 H          2.7325826995        0.3147366965       -2.3373123131
 H          2.7169671178       -1.3858067948       -1.8593383131
 H          4.5485797647        1.7985936155       -1.5866860291
 H          6.8568515431        1.9870165161       -0.8235294444
 H          8.6515150027        1.9181332613        0.7304182683
 H          9.1499077898        1.4070887013       -0.9082105800
 H         10.0422338063        0.8260573637        0.5195100882
 H          7.1802385090       -4.2073973151        1.0381145957
 H          5.5441468694       -3.5410879069        1.2595220231
 H          6.1250583599       -3.9698095651       -0.3763121029
 H          4.4542134193       -2.3010417061       -0.4308724117
 H         -0.8491661808       -1.4108004408       -1.4785032110
 H         -0.2936828615       -1.7199846911        0.1777081430
 H          0.7522430594       -2.0924160088       -1.2093213712
 H         -4.9819332060        2.8766066050       -0.0460728700
 H         -4.3930090590        2.9316875902        2.9479085061
 H         -5.3088608248        1.6694941889        2.1160732194
 H         -5.9241871004        3.3193634193        2.1705867501
 H         -3.1350115934        4.7280243708        1.5284285735
 H         -3.4977602962        4.8203851942       -0.1990265988
 H         -4.7571060210        5.1360455983        0.9837816841
 H         -0.9319195069        2.8924632073        3.1005818872
