  72
        -99.32777467
 N         -2.0355901938        2.7441726476        2.7414423138
 C         -1.8838813240        2.0602358353        1.7072187478
 C         -2.8805436409        1.9938435685        0.5809782853
 C         -3.4736163440        0.5968236365        0.5111215835
 C         -4.2681678823        0.2347913532       -0.5783077741
 C         -4.8361606399       -1.0250332734       -0.6746184768
 O         -5.6169749166       -1.4509589091       -1.6882039797
 C         -6.0021452721       -0.5403330050       -2.6919782550
 C         -4.5982610447       -1.9799848610        0.3517808438
 O         -5.1679043818       -3.1870541756        0.1670893700
 C         -5.0142263623       -4.1757213489        1.1590047599
 C         -3.8219037555       -1.6085114088        1.4386083947
 C         -3.2706909803       -0.3357681879        1.5176238311
 C         -2.0863486114        2.3105006642       -0.7156204543
 C         -1.2274483344        1.1565850458       -1.2689899566
 C         -0.0215072638        0.8620573108       -0.4533607892
 N          0.3738578881       -0.3411640500       -0.0500216503
 C          1.4989688294       -0.5482596789        0.6220875999
 C          3.4314586934       -0.1165400060       -2.5327146401
 C          4.5675800997       -0.0596722740       -1.7625302427
 C          5.3428812863        1.1314410777       -1.6797122316
 C          6.4836214216        1.1890581672       -0.9221611204
 C          6.9220422525        0.0754141524       -0.1983462324
 O          8.0129712660        0.0259475134        0.5728457113
 C          8.8376132414        1.1637048560        0.6955995213
 C          6.1644122970       -1.1395036627       -0.2631538762
 O          6.6789655406       -2.1538014783        0.4629643142
 C          6.0467719746       -3.4112697702        0.4283017686
 C          5.0223436945       -1.1904417677       -1.0206595905
 C         -0.4601691699       -1.4965956671       -0.3350985984
 C         -4.0545660700        3.0063555903        0.7414238531
 C         -4.9188211156        2.6752077035        1.9559173987
 C         -3.5913531599        4.4579978238        0.8189991864
 H         -4.4527156878        0.9548450116       -1.3581534804
 H         -6.5396022697        0.3147142648       -2.2711810553
 H         -6.6674918360       -1.0959871274       -3.3496495094
 H         -5.1407532291       -0.1857401896       -3.2673044023
 H         -5.4319731966       -3.8515494818        2.1166482333
 H         -5.5677268641       -5.0401773775        0.7980772658
 H         -3.9624708305       -4.4488201985        1.2926259425
 H         -3.6454661602       -2.3025604397        2.2441402350
 H         -2.6941214967       -0.0755939292        2.3915540425
 H         -2.7943965673        2.5980184477       -1.4929236679
 H         -1.4418313245        3.1699120375       -0.5261559650
 H         -1.8526158067        0.2758673689       -1.3982222572
 H         -0.8934834454        1.4750048361       -2.2651634145
 H         -0.9809983884        1.4623742942        1.4951563602
 H          0.6590626310        1.6767740380       -0.2577800128
 H          1.7447700809       -1.5297276546        0.9694271023
 H          2.1542355835        0.2744374325        0.8298813715
 H          3.1004728481        0.7348372121       -3.0983428503
 H          2.8561991204       -1.0212591312       -2.6120796205
 H          5.0215022341        1.9971412642       -2.2373312088
 H          7.0513642832        2.1052805438       -0.8910322598
 H          8.2853541038        2.0171102186        1.0989338189
 H          9.2840825829        1.4367585449       -0.2646963997
 H          9.6240010223        0.8801732640        1.3922663287
 H          6.6698381029       -4.0677815462        1.0326580525
 H          5.0421783479       -3.3651161685        0.8613155398
 H          5.9882472905       -3.8030373625       -0.5913645687
 H          4.4446221991       -2.0984810204       -1.0840020689
 H         -0.5603416165       -1.6301040561       -1.4119338997
 H         -1.4511135380       -1.3683008254        0.1034615679
 H         -0.0046408378       -2.3893581118        0.0851457764
 H         -4.6791719842        2.8990237348       -0.1530958096
 H         -4.3379166159        2.7831773467        2.8664063074
 H         -5.3040285125        1.6597720958        1.9007668871
 H         -5.7624484442        3.3590647091        2.0005058490
 H         -2.9552361317        4.6044902995        1.6864791342
 H         -3.0533139592        4.7608203369       -0.0752615308
 H         -4.4595023068        5.1041273165        0.9212960141
 H         -1.2887660547        2.7407173888        3.4289695030
