  72
        -99.44876820
 N         -0.5563291620        1.6908388410        0.6911721109
 C         -1.7802076840        1.8190903066        1.1751488580
 C         -2.9936883856        1.8342992292        0.3178345247
 C         -3.6832445391        0.4651240491        0.3714895911
 C         -4.7768800938        0.1937670557       -0.4517511795
 C         -5.4297389466       -1.0282365317       -0.4050408690
 O         -6.4817648955       -1.3840359736       -1.1691058612
 C         -6.9842659510       -0.4855233238       -2.1293952660
 C         -4.9933494362       -2.0245965987        0.5098605308
 O         -5.6981564824       -3.1725688413        0.5089922830
 C         -5.3353035061       -4.1896317715        1.4147335335
 C         -3.9032509154       -1.7499065382        1.3182567132
 C         -3.2567476748       -0.5229685321        1.2446087510
 C         -2.5436657998        2.1344267195       -1.1250076116
 C         -1.4490148886        1.1572785792       -1.5350913600
 C         -0.1866515957        1.4055024143       -0.7109304992
 N          0.7447613601        0.3312934298       -0.7894399274
 C          2.1287829223        0.5904086344       -0.4496855403
 C          3.0673818437       -0.0611628327       -1.4833859538
 C          4.4888925508       -0.0390604257       -1.0015033534
 C          5.2317263139        1.1321594856       -1.0303216943
 C          6.5304894111        1.1635620501       -0.5479257519
 C          7.1188942982        0.0193518670       -0.0267123488
 O          8.3673011517       -0.0671953749        0.4710470040
 C          9.1843389876        1.0801256830        0.4825990445
 C          6.3707575057       -1.1897815099       -0.0026620671
 O          7.0208396720       -2.2568076505        0.5043935018
 C          6.3825264094       -3.5112862731        0.5157188891
 C          5.0698940773       -1.1928543644       -0.4823481544
 C          0.2558239606       -0.9901069461       -0.4405069875
 C         -3.9889184227        2.9218079421        0.8358148543
 C         -4.6291704636        2.5347173992        2.1680894793
 C         -3.3230591616        4.2917071416        0.9704098499
 H         -5.1355881203        0.9502287758       -1.1300326250
 H         -7.3736578129        0.4253110146       -1.6644760255
 H         -7.7991075264       -1.0133104397       -2.6215618317
 H         -6.2233660334       -0.2242932384       -2.8716355962
 H         -5.4215691580       -3.8505349082        2.4517396855
 H         -6.0372664745       -5.0027600344        1.2424353724
 H         -4.3167347871       -4.5450029184        1.2295040369
 H         -3.5475566001       -2.4875211965        2.0210767443
 H         -1.8817416731        1.9249814578        2.2483364802
 H         -3.3855266120        2.0527277495       -1.8091800258
 H         -2.1606596472        3.1530449927       -1.1853787587
 H         -1.8060016115        0.1401441902       -1.3818725066
 H         -1.1981386715        1.2758854197       -2.5884564747
 H         -2.4190083987       -0.3505444153        1.9036463046
 H          0.3147586141        2.3102189032       -1.0850330995
 H          2.3789927267        0.2000440313        0.5484031797
 H          2.3065070306        1.6676344669       -0.4415715445
 H          2.9757602116        0.4780936156       -2.4266991793
 H          2.7478849986       -1.0893644839       -1.6502005772
 H          4.8009016560        2.0321445235       -1.4416478308
 H          7.0828671435        2.0881685628       -0.5872632578
 H          8.7467398734        1.8771223106        1.0916504592
 H          9.3672359652        1.4522409863       -0.5298548989
 H         10.1262145667        0.7629309727        0.9261293209
 H          7.1098151193       -4.2052166074        0.9328075843
 H          5.4886968338       -3.5023004133        1.1477564793
 H          6.1128932899       -3.8330377328       -0.4949408798
 H          4.4945080096       -2.1053432759       -0.4677395660
 H         -0.1100413707       -1.5076932891       -1.3295537875
 H         -0.5536598342       -0.9456158530        0.2933479581
 H          1.0650585830       -1.5792341974       -0.0155600517
 H         -4.7850770243        2.9975432911        0.0895125962
 H         -3.9016934979        2.5401480667        2.9756073740
 H         -5.0839100847        1.5494043176        2.1176080222
 H         -5.4045957009        3.2540180433        2.4180909274
 H         -2.4572385029        4.2423228632        1.6275457629
 H         -3.0067659296        4.6890633220        0.0102120263
 H         -4.0309095890        4.9962151253        1.3990147890
 H          0.2214967065        1.6847060795        1.3391978958
