25
 energy: -42.444411803871 xtb: 6.6.1 (8d0f1dd)
C            3.30092778092185        1.28105526478429        0.11601303531730
N            2.40550800673238        0.16037734477863        0.06904589587616
C            2.74396746658697       -1.14633133429878        0.06316700195896
N            1.61158101188916       -1.90488460143660        0.07131944189066
C            0.52188741916861       -1.07061288387324        0.04083406735288
C            1.01774918702510        0.24628137396544        0.06305020399481
C            0.17847530582928        1.38052114014907        0.00425489194253
O            0.54221828419592        2.55937616437288        0.00142542549133
N           -1.17956591891760        1.01818621472684       -0.06373254820161
C           -2.16327832475635        2.08211562804054       -0.14016186674879
C           -1.69769035464390       -0.24010295332177       -0.07051902436866
O           -2.88568427578131       -0.44817773508742       -0.15729475342529
N           -0.79313085284450       -1.35003950142090        0.02948148407115
C           -1.41368940875312       -2.54129732247946       -0.17921190810460
H            3.86725487736701        1.29032684852847        1.05466703390791
H            4.00431373380975        1.24030914781583       -0.71969292337218
H            2.70695904216895        2.19575573347837        0.05091468231416
H            3.73579538446405       -1.53154104474861        0.11991796802206
H           -1.61653115172730        3.01993570792034       -0.11893928274065
H           -2.73753605782186        2.00042206070252       -1.06006492540572
H           -2.85426764196242        2.01301155258237        0.69833074842276
H           -0.88041498574453       -3.43423144558972       -0.09686864353988
H           -2.38372207175730       -2.50035870337880       -0.64445409832745
H           -3.61812426699270       -3.42013494575535        0.20258918102082
H            1.59325040681169       -2.91318440997842        0.06060651505293
