25
 energy: 0.000000000000 xtb: 6.6.1 (8d0f1dd)
C            3.23720163006194        1.16630919979326        0.08434469647475
N            2.29877817382611        0.07527477071623        0.03981603040599
C            2.58028210190900       -1.21425402444508        0.03006176031096
N            1.43813958087363       -1.93419271955128        0.00098261760884
C            0.39035688448383       -1.05887472636071       -0.00790371836672
C            0.93510056364412        0.21347819449412        0.01709077491437
C            0.09450143893243        1.40504303904423       -0.00410947031874
O            0.49712751527797        2.54126714362870       -0.00342325688240
N           -1.25076640035757        1.06271879480407       -0.03085478223738
C           -2.21907211982101        2.15522099834493       -0.05001256985998
C           -1.81739487048744       -0.20012725993278       -0.04692818574614
O           -2.99983886758376       -0.37846417018721       -0.07008878229737
N           -0.92618586207120       -1.30210215599479       -0.03682761578324
C           -1.46982264913417       -2.64643102187190       -0.06029820460571
H            3.71247264356769        1.21471455160235        1.06488849150277
H            4.00791497605742        1.03430808813993       -0.67357694370751
H            2.69910007168542        2.09770118228144       -0.09130154882931
H            3.56654120610678       -1.63682992603973        0.04233140067262
H           -1.67107961066214        3.09322851271934       -0.02552706933167
H           -2.82428953597071        2.09428624779827       -0.95318082946668
H           -2.87644029173232        2.07745725625962        0.81450067533302
H           -1.17061996399332       -3.19584890659852        0.83242232437030
H           -1.14560257411436       -3.17511610292205       -0.95688275822323
H           -2.55549792440841       -2.55659984320617       -0.07459039797972
H            1.38130855184625       -2.94313852034425       -0.01389874181052
25
 energy: -3.355512399704 xtb: 6.6.1 (8d0f1dd)
C            3.25022117825185        1.19230721614940        0.09158180221381
N            2.31838919295484        0.10479862264764        0.04244923654099
C            2.61788472732367       -1.21995656878239        0.03427963218024
N            1.45007318125588       -1.93679782675416        0.00368500947076
C            0.40634212206482       -1.06329914181409       -0.00880855045268
C            0.93916129051559        0.22003042019118        0.01808079206727
C            0.11132702824927        1.39333820428100       -0.00248393371304
O            0.50666673221453        2.55948616583703        0.00084908372864
N           -1.24888290677915        1.04676849345020       -0.03459443783197
C           -2.21191443225811        2.13935611454242       -0.06046446263111
C           -1.81220031031166       -0.20335558616420       -0.04914290946741
O           -3.00809642929473       -0.38519798093814       -0.08107113509513
N           -0.93284217795261       -1.30785866146070       -0.03300396338515
C           -1.52958269360310       -2.63354885726535       -0.04751116384074
H            3.74457371363529        1.22967242290309        1.06619452739684
H            4.00905171791686        1.07304608097980       -0.68355033677659
H            2.69885390392660        2.11779142241299       -0.06404493396490
H            3.60098694504169       -1.63563553441023        0.05075686488309
H           -1.65515007550332        3.07318205489578       -0.03438457335637
H           -2.81192399624801        2.08034897688950       -0.96800951206418
H           -2.87336684524130        2.06585729369845        0.80199860346737
H           -1.12733062419238       -3.23630122553038        0.77054104522913
H           -1.28068315700752       -3.14954215226039       -0.94841369430394
H           -2.64617636372567       -2.59465968861103       -0.02894847513699
H            1.39683294670288       -2.94080166271543       -0.00895061901067
25
 energy: 2.316367167016 xtb: 6.6.1 (8d0f1dd)
C            3.26418054951893        1.22439944689327        0.10267064911658
N            2.33906153630222        0.13707131196519        0.04806869758504
C            2.66119896868656       -1.21764022598549        0.04390135790995
N            1.47313877430689       -1.93328916322340        0.01057260278495
C            0.42626527863458       -1.07605786485475       -0.00609441870299
C            0.94257779862757        0.22283933445817        0.02103329340525
C            0.13532893922440        1.37199965303388        0.00045350090847
O            0.51077775353572        2.56094761514935        0.00933741464090
N           -1.24406998966493        1.02703255730304       -0.04230024786824
C           -2.19910583225644        2.11980531948008       -0.07978648604804
C           -1.79575398459717       -0.20995214499128       -0.05590626943920
O           -2.99925509939865       -0.39374868014888       -0.10398335571802
N           -0.93844936266188       -1.32092369683369       -0.02342816761893
C           -1.61014532875254       -2.62159686985833       -0.02751230848705
H            3.79492133593710        1.24640263927974        1.06287284423491
H            4.00433858073882        1.13766656238162       -0.70007865543397
H            2.69846989341049        2.14789246820612       -0.01385728879392
H            3.64451799906804       -1.61796352018038        0.06711429726681
H           -1.63316429541944        3.04875271809084       -0.05057246533865
H           -2.79025606584861        2.05970300109408       -0.99366658397771
H           -2.86868096114204        2.04938970204720        0.77713931725851
H           -1.05844911379384       -3.30428849019565        0.67150240767074
H           -1.52195155398382       -3.10869464910157       -0.97392987319541
H           -2.76185242009253       -2.62557314894908        0.08350379155951
H            1.43857126755674       -2.93514527288803       -0.00002015757222
25
 energy: 11.136411062810 xtb: 6.6.1 (8d0f1dd)
C            3.27276808903719        1.25123930148391        0.11141343869342
N            2.35540781676385        0.15725711796378        0.05476053650036
C            2.69495791714760       -1.20953630441199        0.05415321091667
N            1.50358776334057       -1.92966829812751        0.02104875834667
C            0.44476102704376       -1.09450567287401        0.00357248138792
C            0.94865968825835        0.21818027684745        0.02683604269869
C            0.15477430643881        1.35793506465133        0.00474902485118
O            0.51227060222257        2.55614128915288        0.01845613137283
N           -1.23664470575005        1.01355235370656       -0.05057629246597
C           -2.18721630643843        2.10390283508032       -0.10041475774125
C           -1.77713543820361       -0.22035995223292       -0.06653476300989
O           -2.98375316253685       -0.40374487702675       -0.13170729470934
N           -0.93692629264350       -1.34056855531853       -0.00857674805932
C           -1.67334398140961       -2.61994221249565       -0.00652439929453
H            3.84176583152367        1.25588889843973        1.05328213640625
H            3.99099601706053        1.20346858428659       -0.71959156279453
H            2.69594430114702        2.17552126754336        0.04034188845872
H            3.68389571516568       -1.59253550766174        0.08298071359742
H           -1.61639306763318        3.02951317876460       -0.06741804258745
H           -2.76848347144055        2.03975426180579       -1.02051877103246
H           -2.86499288219632        2.03370666970170        0.75013094063669
H           -1.01327149019661       -3.37007845589663        0.55988237406499
H           -1.77817029837895       -3.05449318595427       -1.00712997331288
H           -2.84652329388925       -2.63876384696212        0.21389006472682
H            1.49527998350346       -2.93283562829383        0.01052875849623
25
 energy: 17.070083616607 xtb: 6.6.1 (8d0f1dd)
C            3.27621652397229        1.26849948539434        0.11342948081831
N            2.36589934741498        0.16432882606207        0.05955293567917
C            2.71484996477635       -1.19839339998660        0.06024815716774
N            1.53300710539356       -1.92622110140390        0.03279199227221
C            0.45712601030860       -1.11294488165023        0.02047747371362
C            0.95578899898086        0.20843388876368        0.03492244727139
C            0.16726244108866        1.35145355626246        0.01039915863150
O            0.51285805441662        2.54622796678768        0.02816325941380
N           -1.22802600973401        1.00605874298503       -0.05598086122480
C           -2.17764685752382        2.09285470512213       -0.11459707398539
C           -1.76139000147386       -0.23156793487159       -0.07979355219546
O           -2.96663594649103       -0.41231077206787       -0.16154755114967
N           -0.93334799712339       -1.36102269138984        0.00831462752104
C           -1.71583831624703       -2.62468985106017        0.00853618791417
H            3.87997938609478        1.25664873609309        1.03484092025265
H            3.97045209939394        1.25761465259865       -0.74228119861098
H            2.69272939619179        2.19368569587104        0.08611396234581
H            3.71187562691354       -1.56598821732943        0.09051115421787
H           -1.60590217099038        3.01704029260155       -0.07769325698108
H           -2.75119776386722        2.02489331527301       -1.03896854793723
H           -2.86137564273423        2.02090801443176        0.73079441907750
H           -1.02668853467491       -3.40771930177956        0.45680777323934
H           -1.95507704688165       -2.99108974933282       -0.99349359952768
H           -2.89497137770784       -2.65563630616567        0.29676788821230
H            1.55226737843953       -2.93203506903674        0.01871770001115
25
 energy: 18.873093939483 xtb: 6.6.1 (8d0f1dd)
C            3.27438208130798        1.27189241146976        0.11146023470775
N            2.36874450503498        0.15848287526503        0.06291449456830
C            2.71616427090959       -1.18653223180814        0.06503720790467
N            1.55304496188596       -1.92302707709124        0.04508765030725
C            0.46059839597502       -1.12482777911115        0.03957623257092
C            0.96167218496124        0.19830321875220        0.04241008566890
C            0.17116404928580        1.35293803392590        0.01378223919744
O            0.51317468331658        2.53612329370788        0.03350306513629
N           -1.21964647081162        1.00370280694392       -0.05715764698579
C           -2.17234578386353        2.08718849979480       -0.12523875528556
C           -1.75214520279883       -0.24162656057711       -0.08565374320118
O           -2.95260841374386       -0.41931516670335       -0.18880345640207
N           -0.92896722094979       -1.37584570375530        0.02830199010388
C           -1.72639634171932       -2.63525617042645        0.01756565019291
H            3.89774315978997        1.24833332163690        1.01461151070949
H            3.94700552560558        1.28282993260562       -0.75634128383100
H            2.69171164932737        2.19489881488932        0.11217594239366
H            3.72007196641798       -1.54547375632728        0.09715898423182
H           -1.60424680628319        3.01291061302142       -0.08714948384077
H           -2.74121905144133        2.01580067111238       -1.05168035320333
H           -2.86000288006930        2.01601607673948        0.71673728314097
H           -1.03984832985209       -3.43185146602807        0.34923511593706
H           -2.06310941536073       -2.89649187681361       -0.96706012710555
H           -2.89675849162347       -2.67962139259439        0.36779490649047
H            1.59403164263514       -2.93052278645647        0.02876615274066
25
 energy: 20.217446986896 xtb: 6.6.1 (8d0f1dd)
C            3.27160290051020        1.26777845756575        0.10951476401905
N            2.36795274114309        0.15117608663057        0.06695545422714
C            2.70962350659948       -1.17866305980000        0.07313375544097
N            1.56054664042618       -1.92179560897057        0.06211383676411
C            0.46092162106319       -1.12662281870539        0.06095035822466
C            0.96438971689767        0.19505154657569        0.04991393690283
C            0.17042412155610        1.35585042582392        0.01373830664562
O            0.51462886557528        2.53386701634388        0.03008860676877
N           -1.21389060120435        1.00152921550719       -0.05640925575684
C           -2.17110112460873        2.08342546754144       -0.13946646290363
C           -1.74754589785177       -0.24855548436524       -0.07819379838638
O           -2.94358824187861       -0.42773370007980       -0.20583473710289
N           -0.92248442520132       -1.37964391238990        0.06029500782171
C           -1.71491216899653       -2.64165658645129        0.02561991634693
H            3.90187094268735        1.23569168762280        1.00174436373136
H            3.92746850245534        1.28256951632564       -0.76399315374181
H            2.68936401636325        2.18604660804886        0.12232107572707
H            3.71517052264577       -1.53703222018201        0.11121059822960
H           -1.60870171256875        3.01301865669876       -0.10493646845714
H           -2.73630569545057        2.00715844318534       -1.06767311694368
H           -2.86281394796988        2.01909178315036        0.69984661801849
H           -0.98836100027164       -3.48401657377635        0.21519978834453
H           -2.17546537048069       -2.76066819399271       -0.97419080805469
H           -2.86689519916688       -2.70850955514002        0.46530287907121
H            1.61031595566296       -2.92832859499482        0.04978243121023
25
 energy: 17.963300985171 xtb: 6.6.1 (8d0f1dd)
C            3.26839304534448        1.26004359196201        0.10420009684047
N            2.36366101717207        0.14276556760088        0.06667789351344
C            2.69806091170769       -1.17546648357437        0.07251559347160
N            1.55645252645693       -1.92340645991492        0.07143015965570
C            0.45736850590867       -1.12179553672431        0.07372085921160
C            0.96393371805879        0.19582701170207        0.05505493727881
C            0.16453435170144        1.35718208291690        0.01465582777462
O            0.51607623924139        2.53333253092326        0.02838038445166
N           -1.21158329492875        0.99961794237856       -0.05289336306044
C           -2.17226932649966        2.08195141035134       -0.14066923672316
C           -1.74832072431731       -0.25186801945315       -0.07340728976702
O           -2.93969283751131       -0.43481178484500       -0.20908018739755
N           -0.91628693632906       -1.37514197050736        0.07762073561065
C           -1.69453013388795       -2.64278868377558        0.01767928078579
H            3.90045908652102        1.22326719050602        0.99312609610426
H            3.91566094889546        1.27070358524434       -0.77345527381499
H            2.68443987807488        2.17620858267830        0.12046726325715
H            3.70204410671081       -1.54023144686372        0.11356181439272
H           -1.61356025222051        3.01464896364272       -0.10903696029179
H           -2.73713758174375        2.00435370974365       -1.06891613261194
H           -2.86453832297394        2.02182040301346        0.69852624195705
H           -0.99950185961410       -3.46931977972818        0.15034588088387
H           -2.16744292674954       -2.69435741992829       -0.93495652013710
H           -2.81507849900565       -2.73522436275180        0.46948528437793
H            1.60107302792404       -2.92828202242475        0.06200051038394
25
 energy: 17.577311288881 xtb: 6.6.1 (8d0f1dd)
C            3.26936602355341        1.26064908234027        0.10244626215000
N            2.36439566470521        0.14465060330466        0.06674430768703
C            2.70049921366165       -1.17816278843543        0.07428218581525
N            1.55418331040503       -1.92624633709618        0.08037818625382
C            0.45943148284674       -1.11977867157391        0.08340838271658
C            0.96328810500780        0.19845470695542        0.05884012861889
C            0.16307104508983        1.35471221109497        0.01507018425556
O            0.51733312622250        2.53538065075464        0.02231470787901
N           -1.21291209196031        0.99738140170151       -0.05165925721091
C           -2.17331464515846        2.07989397813377       -0.14484561081127
C           -1.74746882854495       -0.25270587821956       -0.06607816584354
O           -2.93859988270165       -0.44014648922105       -0.20659884497258
N           -0.91266955300433       -1.37287068864637        0.09716292239930
C           -1.69190872581737       -2.64043193864719        0.01209962209057
H            3.90274211046694        1.22418264969232        0.99211169432480
H            3.91640577180151        1.26879299824775       -0.77749182908487
H            2.68258706539940        2.17639540216527        0.11778237177260
H            3.70236209886475       -1.54638048364972        0.12045168381685
H           -1.61394357628408        3.01265309538018       -0.11614508197551
H           -2.73669243128476        1.99881396808380       -1.07388790813410
H           -2.86627698104650        2.02269438013360        0.69392485292527
H           -0.98240657839369       -3.47583092085868        0.08713688984446
H           -2.20721603112779       -2.64040767830326       -0.93067231711470
H           -2.79260042232874       -2.76192706357961        0.49530198454032
H            1.59255939756395       -2.93073758758508        0.07495654420445
25
 energy: 16.498638682687 xtb: 6.6.1 (8d0f1dd)
C            3.27098115022055        1.26192230205289        0.10203091863080
N            2.36528685882062        0.14892244219105        0.06439846050144
C            2.70651259006680       -1.18582920284486        0.07274657753900
N            1.54781630342237       -1.93067437594842        0.08518024050496
C            0.46212626932724       -1.11656809048171        0.08608824751204
C            0.96191545468079        0.20202126286956        0.05936054953264
C            0.16023837991690        1.35074972840085        0.01328450237282
O            0.51847411076077        2.53770218125756        0.01130209919064
N           -1.21753869437394        0.99621870119835       -0.05041650513383
C           -2.17596251534535        2.07941114506470       -0.14615404660829
C           -1.74840413855057       -0.25117871906691       -0.05540943952414
O           -2.94112852496198       -0.44450049325840       -0.19185659268588
N           -0.91014192034211       -1.36958500250899        0.11609580231994
C           -1.68910089733985       -2.63784907761878       -0.00005559223428
H            3.89466501551134        1.23525900584598        1.00009636559967
H            3.93090716338055        1.26037507947884       -0.76989838206783
H            2.68391606242790        2.17826473677968        0.10104276236707
H            3.70440604007771       -1.55895294007674        0.12849186842419
H           -1.61357286612872        3.01058209398148       -0.12072984157997
H           -2.73910066074501        1.99510123230426       -1.07518141049430
H           -2.86829890626629        2.02407641769352        0.69301514234650
H           -0.96920461136651       -3.46436235821632        0.03203110391485
H           -2.23594833029208       -2.59858459964519       -0.92404524668069
H           -2.75919566362139       -2.79814582366186        0.51068480149362
H            1.57256699865635       -2.93534704361846        0.08493151090626
25
 energy: 15.970134602608 xtb: 6.6.1 (8d0f1dd)
C            3.27068825595507        1.26071636288372        0.10273507255910
N            2.36447190352602        0.14840773629763        0.06339108613684
C            2.70677278123852       -1.18777826849900        0.07051544333062
N            1.54572291826712       -1.93070349806562        0.08432698225885
C            0.46148691453664       -1.11618084526214        0.08401384072675
C            0.96195312071302        0.20120568425315        0.05827022568225
C            0.15920084415906        1.35102598590675        0.01081533486263
O            0.51821846352171        2.53667322686304        0.00658535740152
N           -1.21869210283900        0.99780846140949       -0.05024645066413
C           -2.17666603256761        2.08104714061535       -0.14666678471053
C           -1.74947667092706       -0.24987548290326       -0.05018365464257
O           -2.94285932721743       -0.44380483889463       -0.18129395503498
N           -0.91128731981719       -1.36943928410803        0.12146974979361
C           -1.68786398645275       -2.63850390404103       -0.00291757095083
H            3.88701604949262        1.23997192562150        1.00654986752676
H            3.93878812775967        1.25397350530295       -0.76340942594590
H            2.68473595123472        2.17814289258655        0.09169585715774
H            3.70386388497784       -1.56091802868292        0.13135303714677
H           -1.61374457729602        3.01169555419417       -0.12232824781537
H           -2.74036789811616        1.99609068239476       -1.07526393308804
H           -2.86884945307187        2.02640073870996        0.69266535451702
H           -0.96437519914452       -3.46449754653016        0.01776344271443
H           -2.23803407667831       -2.58743867852638       -0.92058332277438
H           -2.74572172923406       -2.80923665215356        0.51313564281229
H            1.56723382591610       -2.93575426720017        0.08464094714677
25
 energy: 15.291373778333 xtb: 6.6.1 (8d0f1dd)
C            3.27011610839163        1.25975158126009        0.10385171358010
N            2.36375190395771        0.14785233071924        0.06241400236095
C            2.70728400522655       -1.18838835299142        0.06695426084052
N            1.54581435006329       -1.92996126206735        0.08297228572595
C            0.46147195489884       -1.11672338604517        0.08062648259774
C            0.96261526793458        0.19961123337867        0.05720760584954
C            0.15912192208619        1.35157350171536        0.00884627096192
O            0.51743926296400        2.53530010425317        0.00361828068857
N           -1.21863252445039        0.99850869255434       -0.05031663296337
C           -2.17677394312253        2.08149402852465       -0.14717655133666
C           -1.74955467673893       -0.24994735632861       -0.04596758119091
O           -2.94388644855582       -0.44387047066280       -0.17205837730958
N           -0.91174113635168       -1.37084449994574        0.12409008117421
C           -1.68674218337831       -2.64017839435150       -0.00553114741215
H            3.87857762719026        1.24443755922933        1.01430040629128
H            3.94680422432971        1.24740696538086       -0.75651071183013
H            2.68523804052438        2.17858524176596        0.08249501467007
H            3.70425501370777       -1.55978338899926        0.13408468108658
H           -1.61414879820701        3.01213824678536       -0.12301682174063
H           -2.74082828644329        1.99685380530900       -1.07561511935584
H           -2.86934867204914        2.02732133812281        0.69196525534764
H           -0.96552785637213       -3.46001584489649        0.00981423572503
H           -2.24640275703076       -2.58060605343612       -0.92059269060850
H           -2.73303376815627       -2.81613137487097        0.51833589687164
H            1.56634603751747       -2.93535564223130        0.08224305612331
25
 energy: 15.386020431282 xtb: 6.6.1 (8d0f1dd)
C            3.26972106721679        1.25961099274206        0.10396640669610
N            2.36324743435495        0.14781406094500        0.06215477814104
C            2.70697601695516       -1.18784742650147        0.06513808126304
N            1.54641734861569       -1.92941141320540        0.08284767019366
C            0.46099131959278       -1.11733984555625        0.07983064237196
C            0.96249718655424        0.19901416032198        0.05731853583329
C            0.15985878189005        1.35189189498492        0.00924958561529
O            0.51721615755071        2.53498887991821        0.00440623225622
N           -1.21804310921249        0.99864715012662       -0.05051015111048
C           -2.17622860796518        2.08149013712435       -0.14729867548296
C           -1.74948783515196       -0.24970959487297       -0.04599844082055
O           -2.94413785109766       -0.44257661437612       -0.17153906920321
N           -0.91267394018271       -1.37125159396297        0.12308157862205
C           -1.68946096271163       -2.63946540086893       -0.00577857038223
H            3.87699305009182        1.24499409043775        1.01587075631640
H            3.94816403125055        1.24621411459748       -0.75547752288077
H            2.68539324325013        2.17914546225726        0.08096990509173
H            3.70445187410435       -1.55770714543469        0.13457800536123
H           -1.61390639111930        3.01229741053710       -0.12248865053495
H           -2.73995051549805        1.99725995729785       -1.07602822921783
H           -2.86920754459583        2.02695148920931        0.69152434878067
H           -0.96509177749519       -3.46202420403583        0.00943457683774
H           -2.24531852992217       -2.58408374830729       -0.91850714298105
H           -2.73478592869012       -2.81496333439089        0.51987782208586
H            1.56858015015117       -2.93491087681502        0.08041142329498
25
 energy: 15.384048745075 xtb: 6.6.1 (8d0f1dd)
C            3.26971551167521        1.25976957807563        0.10371150627584
N            2.36326063775912        0.14797977711636        0.06203587923558
C            2.70684039198845       -1.18740890898612        0.06419362714540
N            1.54689678115056       -1.92935790557018        0.08341079266890
C            0.46100931879103       -1.11753168939812        0.08037925664192
C            0.96235759765901        0.19915347788457        0.05762175892889
C            0.16020705117472        1.35189201823982        0.00982991277724
O            0.51711307977470        2.53532321676205        0.00541859364367
N           -1.21777341342510        0.99822892681824       -0.05070596375837
C           -2.17603511390848        2.08103714697705       -0.14724119332235
C           -1.74923947542322       -0.25000373266813       -0.04700306618912
O           -2.94378699116760       -0.44250751154124       -0.17307539696027
N           -0.91256588752905       -1.37141987333775        0.12236198297367
C           -1.68982562081596       -2.63925477298683       -0.00506607159195
H            3.87741000297354        1.24476243913316        1.01523346898907
H            3.94770920690370        1.24653415853134       -0.75594737221356
H            2.68558147008226        2.17928805733747        0.08134768489805
H            3.70454907415102       -1.55678606219714        0.13513547162703
H           -1.61386446410169        3.01199867903183       -0.12197208892659
H           -2.73943172664583        1.99705164365326       -1.07619655277053
H           -2.86914635716338        2.02614473938917        0.69143057078465
H           -0.96668388909403       -3.46295895115731        0.01095858083947
H           -2.24655124959786       -2.58505788690455       -0.91891110570027
H           -2.73560621214000       -2.81306708089204        0.52023191974436
H            1.57007494486501       -2.93478088113842        0.07985170040652
25
 energy: 15.220440430299 xtb: 6.6.1 (8d0f1dd)
C            3.26972781121798        1.25979850415477        0.10353071366681
N            2.36321844907052        0.14818378168403        0.06146203139734
C            2.70654559169556       -1.18703310453810        0.06017786049342
N            1.54733912424919       -1.92930740098864        0.08406144448190
C            0.46086792991175       -1.11785676757340        0.08056238540190
C            0.96202628977069        0.19934722398930        0.05803356144861
C            0.16080340578909        1.35192017848535        0.01068096431398
O            0.51680923200505        2.53587749331024        0.00717093775779
N           -1.21756193083312        0.99767854403323       -0.05121210816900
C           -2.17584717119596        2.08049499491180       -0.14704880990540
C           -1.74907869671769       -0.25031635679562       -0.04853923626099
O           -2.94364047772875       -0.44211629493206       -0.17516088552219
N           -0.91265180352067       -1.37165144860255        0.12012844721246
C           -1.69046409212837       -2.63871520484457       -0.00448580266650
H            3.87711560673151        1.24468993843627        1.01547774661758
H            3.94825049362855        1.24621064666380       -0.75594235779782
H            2.68582944591594        2.17957803002836        0.08106699299895
H            3.70446123614434       -1.55529482865359        0.13809509912339
H           -1.61380849363621        3.01160568037139       -0.12081844305012
H           -2.73876079753752        1.99718370589690       -1.07632139132963
H           -2.86916967843611        2.02481331269852        0.69133853127797
H           -0.96911300841555       -3.46296658021746        0.01443875668904
H           -2.24752572436781       -2.58796353456219       -0.91955271425447
H           -2.73528068042161       -2.81053030222528        0.52248493695082
H            1.57212260674532       -2.93460160855842        0.07740523527138
25
 energy: 15.118640811213 xtb: 6.6.1 (8d0f1dd)
C            3.26974685420947        1.25964051478723        0.10351161508494
N            2.36329371950143        0.14799201975493        0.06114640906736
C            2.70650181934597       -1.18729426383721        0.05760885255422
N            1.54706993034411       -1.92937327934198        0.08415071461599
C            0.46085294123359       -1.11778711295752        0.08093845345568
C            0.96206149472817        0.19934996346759        0.05817590500890
C            0.16069459711540        1.35192789832279        0.01056652017186
O            0.51675444320611        2.53576880048012        0.00696207988119
N           -1.21777232941067        0.99785776463379       -0.05120229571575
C           -2.17603500365375        2.08071541342438       -0.14709166715020
C           -1.74917784221523       -0.25023010144424       -0.04827268833298
O           -2.94368549116603       -0.44227079077486       -0.17485178005074
N           -0.91259590608073       -1.37153466307306        0.12025277907291
C           -1.69026877804700       -2.63859811062021       -0.00453740515298
H            3.87673883167806        1.24476057812159        1.01572092261589
H            3.94865542670609        1.24598888890452       -0.75564624212016
H            2.68580047827200        2.17938572585363        0.08064018817502
H            3.70405983926379       -1.55550284288254        0.14086547781260
H           -1.61392183333330        3.01174506317898       -0.12097631332754
H           -2.73906476977254        1.99734883275902       -1.07626588629014
H           -2.86930792341189        2.02510058597624        0.69133648410495
H           -0.96852333226166       -3.46336978025905        0.01337320252529
H           -2.24791016200471       -2.58707644723470       -0.91915737964256
H           -2.73341077973721       -2.81085433483219        0.52321126458982
H            1.57165844342666       -2.93466172023513        0.07657468519367
