25
 energy: 0.000000000000 xtb: 6.6.1 (8d0f1dd)
C            3.23720163006194        1.16630919979326        0.08434469647475
N            2.29877817382611        0.07527477071623        0.03981603040599
C            2.58028210190900       -1.21425402444508        0.03006176031096
N            1.43813958087363       -1.93419271955128        0.00098261760884
C            0.39035688448383       -1.05887472636071       -0.00790371836672
C            0.93510056364412        0.21347819449412        0.01709077491437
C            0.09450143893243        1.40504303904423       -0.00410947031874
O            0.49712751527797        2.54126714362870       -0.00342325688240
N           -1.25076640035757        1.06271879480407       -0.03085478223738
C           -2.21907211982101        2.15522099834493       -0.05001256985998
C           -1.81739487048744       -0.20012725993278       -0.04692818574614
O           -2.99983886758376       -0.37846417018721       -0.07008878229737
N           -0.92618586207120       -1.30210215599479       -0.03682761578324
C           -1.46982264913417       -2.64643102187190       -0.06029820460571
H            3.71247264356769        1.21471455160235        1.06488849150277
H            4.00791497605742        1.03430808813993       -0.67357694370751
H            2.69910007168542        2.09770118228144       -0.09130154882931
H            3.56654120610678       -1.63682992603973        0.04233140067262
H           -1.67107961066214        3.09322851271934       -0.02552706933167
H           -2.82428953597071        2.09428624779827       -0.95318082946668
H           -2.87644029173232        2.07745725625962        0.81450067533302
H           -1.17061996399332       -3.19584890659852        0.83242232437030
H           -1.14560257411436       -3.17511610292205       -0.95688275822323
H           -2.55549792440841       -2.55659984320617       -0.07459039797972
H            1.38130855184625       -2.94313852034425       -0.01389874181052
25
 energy: -2.527590526094 xtb: 6.6.1 (8d0f1dd)
C            3.25115885585669        1.19396641534705        0.09201534085829
N            2.31976436720951        0.10606959420639        0.04305690681336
C            2.62037776844942       -1.21798544693214        0.03495814278687
N            1.45343549792900       -1.93616207094727        0.00422778839024
C            0.40797577423575       -1.06411941645807       -0.00873347479689
C            0.94048575213917        0.21986204758169        0.01842721258041
C            0.11266582383271        1.39318669919157       -0.00220105090023
O            0.50776816923890        2.55928632400731        0.00158291274111
N           -1.24721558545361        1.04657929228148       -0.03514853993685
C           -2.21084737969516        2.13863392043813       -0.06156416886082
C           -1.81015084502479       -0.20353775545094       -0.04975472392538
O           -3.00579258487113       -0.38573124658343       -0.08278740524243
N           -0.93233160276634       -1.30853578493327       -0.03247297067047
C           -1.53812508206333       -2.63155276259581       -0.04508820165086
H            3.74719872236151        1.23011507953521        1.06578110729570
H            4.00886254242722        1.07617115466613       -0.68445106520301
H            2.69942237264699        2.11955252962786       -0.06141304521187
H            3.60408580682437       -1.63198051376808        0.05176209898180
H           -1.65528898860455        3.07314606099204       -0.03524612488598
H           -2.81037380182816        2.07888951119243       -0.96935292634257
H           -2.87267915324629        2.06444009168660        0.80052214795793
H           -1.12053905632862       -3.24169181652692        0.76125912613543
H           -1.29866820631274       -3.14589651976891       -0.94343418620126
H           -2.66132119284566       -2.60347749690809       -0.02656580345371
H            1.40234669382537       -2.94019928770892       -0.00834520111152
25
 energy: 6.096748139329 xtb: 6.6.1 (8d0f1dd)
C            3.26659996320230        1.22808330717042        0.10340046016273
N            2.34220323085268        0.14060660916836        0.04945454909665
C            2.66740649181628       -1.21327603136776        0.04570772187549
N            1.48104725818537       -1.93181425466032        0.01215339608542
C            0.43019888288838       -1.07813575124445       -0.00513707369778
C            0.94515838742705        0.22281839972911        0.02173256943125
C            0.13872641580620        1.37200381824275        0.00091107084303
O            0.51372861339456        2.56146997379663        0.01096587861583
N           -1.24038043934628        1.02700962855139       -0.04370176741163
C           -2.19699756200212        2.11832131984313       -0.08179315081996
C           -1.79078048213108       -0.21009969859200       -0.05786340234010
O           -2.99413214709014       -0.39466832775508       -0.10868298075208
N           -0.93741199898300       -1.32265797144886       -0.02161855980888
C           -1.62916000976661       -2.61748447554919       -0.02021346765701
H            3.80044013964776        1.24735765151133        1.06201999257881
H            4.00439955868497        1.14339363890125       -0.70197907577832
H            2.70030774704693        2.15162599245327       -0.00924924790636
H            3.65211294381651       -1.60944264186421        0.06925921314123
H           -1.63431024304601        3.04914381245598       -0.05203882019202
H           -2.78734679879325        2.05648956206361       -0.99603490788844
H           -2.86708475799735        2.04594496240367        0.77454666946787
H           -1.04338551100437       -3.31513881324294        0.64991769200936
H           -1.56309842441077       -3.10083962452769       -0.96139662877763
H           -2.79808152717603       -2.64794303457762        0.08534674916848
H            1.45205493691417       -2.93373944928876        0.00132701670132
25
 energy: 18.517304379877 xtb: 6.6.1 (8d0f1dd)
C            3.27714810448887        1.25693336961957        0.11212866774468
N            2.36046146920165        0.16303947062038        0.05658069075311
C            2.70466789726037       -1.20285754725431        0.05680096090380
N            1.51562232947528       -1.92697025149909        0.02363259931534
C            0.45107737556303       -1.09745139674272        0.00587483627937
C            0.95260294241354        0.21858242266034        0.02776101299859
C            0.16003075406147        1.35831591344023        0.00526639751316
O            0.51678651472063        2.55752410147243        0.02043279546913
N           -1.23112585166278        1.01354408111630       -0.05251959400578
C           -2.18435979526608        2.10133831710895       -0.10257600868592
C           -1.76939222262911       -0.22095543746155       -0.06972785511924
O           -2.97605415814406       -0.40546340407155       -0.13951211028817
N           -0.93512760221952       -1.34395775528808       -0.00532695050107
C           -1.69892327264182       -2.61615190591111        0.00602957610546
H            3.84956653819139        1.25855963769745        1.05205231209738
H            3.99257652948437        1.21080473666237       -0.72165487823124
H            2.70003587651878        2.18115088111223        0.04503743214201
H            3.69577410857610       -1.57965964663901        0.08567306544288
H           -1.61844105489575        3.02980935186127       -0.06888788127294
H           -2.76494052676424        2.03473281020538       -1.02289741323186
H           -2.86237168875689        2.02795744364201        0.74752971510438
H           -0.99717679448160       -3.38243081492853        0.52736866885636
H           -1.83953641659715       -3.04240751464913       -0.98626808573224
H           -2.90243234754954       -2.67476981841982        0.21173851365916
H            1.51574595958923       -2.93018844218196        0.01249742883090
25
 energy: 27.999215923529 xtb: 6.6.1 (8d0f1dd)
C            3.28279444469533        1.27572857764357        0.11393766086213
N            2.37266939152169        0.17169916506187        0.06142568864803
C            2.72699645850511       -1.18971951938694        0.06345218635661
N            1.54816059987066       -1.92188426494696        0.03618930627129
C            0.46522191333166       -1.11637972899128        0.02437944605090
C            0.96100706339241        0.20926318633153        0.03592376933019
C            0.17400271307443        1.35226413088178        0.01066682704848
O            0.51815204903829        2.54781924673952        0.02971393959662
N           -1.22110264565757        1.00587608519176       -0.05804763997587
C           -2.17413557618162        2.08918390764539       -0.11657733629280
C           -1.75132081642849       -0.23306597343578       -0.08362585545430
O           -2.95642585007502       -0.41543637143980       -0.17165062662584
N           -0.93130619700531       -1.36634365475708        0.01297413139988
C           -1.74488398558377       -2.62337698779588        0.02422746606635
H            3.88946899207652        1.26166035938034        1.03328314935377
H            3.97454763529609        1.26572395526293       -0.74371510060446
H            2.69990401388664        2.20091258611453        0.08958126403939
H            3.72688863264443       -1.54971543358055        0.09347822880831
H           -1.60818637806553        3.01678605493282       -0.07920077974388
H           -2.74733981557260        2.01818377922879       -1.04086000568508
H           -2.85761206680150        2.01330991999109        0.72871542585910
H           -1.01314837150862       -3.41891464165271        0.41125910718392
H           -2.02839832615730       -2.97031108559052       -0.96115365861029
H           -2.97176419706937       -2.70653193440058        0.29143138518495
H            1.57802498670957       -2.92770275625577        0.02122591707984
25
 energy: 31.720161471273 xtb: 6.6.1 (8d0f1dd)
C            3.28288299146367        1.27885360314082        0.11244858894493
N            2.37655562235695        0.16649942964703        0.06451851631167
C            2.72844360627170       -1.17795172784535        0.06874512277587
N            1.56746556560588       -1.91756367450776        0.04836275863141
C            0.46972691856424       -1.12589492266056        0.04310444551857
C            0.96783880373620        0.20110318044290        0.04259020087812
C            0.17779261545956        1.35487841124919        0.01251838782701
O            0.51827554030369        2.53940604772352        0.03198766314062
N           -1.21277907313262        1.00333584634500       -0.05875466419119
C           -2.16941467898041        2.08312157935893       -0.12715610213508
C           -1.74168408810489       -0.24371827403247       -0.08648411314996
O           -2.94204358350146       -0.42477305367054       -0.19530606527620
N           -0.92608010694518       -1.38051259467325        0.03371290640753
C           -1.74855532379258       -2.63795858920132        0.03336647010827
H            3.90380133698085        1.25613708381758        1.01645297743838
H            3.95673119767528        1.28561780338669       -0.75337676064220
H            2.70183577997158        2.20173361958973        0.10948803554690
H            3.73445685140789       -1.53058437135915        0.10109729954134
H           -1.60717948227173        3.01249726165411       -0.08985591649835
H           -2.73876247049676        2.00851452110801       -1.05303596083520
H           -2.85616551570542        2.00898216869314        0.71539739490079
H           -1.01984882336600       -3.44090718049665        0.29543875040807
H           -2.13875024696796       -2.86532673439914       -0.93605266674669
H           -2.98870852794631       -2.74198472541175        0.36543921201740
H            1.61637975934997       -2.92447610572662        0.03238741522524
25
 energy: 33.648834852579 xtb: 6.6.1 (8d0f1dd)
C            3.28101457905678        1.27342012082036        0.10955022537185
N            2.37541744238806        0.15812767472982        0.06708038496020
C            2.71962750877379       -1.17104473093749        0.07496691480083
N            1.57189836004004       -1.91604795552486        0.06410414189779
C            0.46944130323055       -1.12457963201069        0.06434660199797
C            0.97080571754498        0.19961585338421        0.04937799368740
C            0.17560725372415        1.35856652260601        0.01111570447603
O            0.51886121446441        2.53743560459032        0.02538368013038
N           -1.20780008865553        1.00140379290586       -0.05730856150737
C           -2.16881389604417        2.08014850585292       -0.13844501925020
C           -1.73850405993681       -0.25037555955413       -0.07675090018100
O           -2.93406525501714       -0.43361133105262       -0.20323798449894
N           -0.91873557707006       -1.38207559749127        0.06561008223161
C           -1.72625634135612       -2.64772222537468        0.03814124009529
H            3.90401636688733        1.24588148737720        1.00707665086062
H            3.94352100003233        1.27937497387544       -0.75902724989204
H            2.70026606227025        2.19276050802290        0.11179903800773
H            3.72636942336019       -1.52595960462998        0.11191354018613
H           -1.61153800934193        3.01307276193989       -0.10557862488672
H           -2.73603086292761        2.00134181089023       -1.06519009338088
H           -2.85826291135084        2.01315150408945        0.70257174386542
H           -0.98070945090019       -3.47854846079442        0.16921631974493
H           -2.21931751721977       -2.73347787788557       -0.92785686492289
H           -2.96870765806284       -2.77986045848252        0.43588657755436
H            1.62411006404626       -2.92196908517426        0.05228835479878
25
 energy: 35.029697167118 xtb: 6.6.1 (8d0f1dd)
C            3.27787912580561        1.26671901779904        0.10374518089501
N            2.37194653798611        0.14836909688893        0.06582835860792
C            2.70805204332087       -1.16639840384163        0.07320520922835
N            1.57020944963529       -1.91783853420729        0.07422476947842
C            0.46672812171264       -1.12031774538168        0.08023103716201
C            0.97180388003028        0.19949916323429        0.05511879674790
C            0.16962239893966        1.35956245692375        0.01133846017636
O            0.52009780035715        2.53489580108697        0.02191305968180
N           -1.20419486708015        0.99806017796516       -0.05449194216263
C           -2.16885094063224        2.07747086345182       -0.13977179785337
C           -1.73856661395715       -0.25595938346858       -0.07129946222304
O           -2.92878710260514       -0.44204649976143       -0.20433848484594
N           -0.90993634459356       -1.37917242506858        0.08828234720760
C           -1.70016728286097       -2.65376176929594        0.02840170421479
H            3.90218724264827        1.23600790650903        0.99913011575539
H            3.93376733427280        1.26954237344445       -0.76852854270628
H            2.69464562163548        2.18458416922653        0.10831325024950
H            3.71392751553510       -1.52835685411827        0.11299064118837
H           -1.61499706745780        3.01331462909686       -0.10954999491988
H           -2.73595998437818        1.99793717978639       -1.06637918595082
H           -2.85865003315125        2.01464830252569        0.70126383525746
H           -1.00201603602167       -3.45724189361755        0.08642223823973
H           -2.21402238504906       -2.65101844259568       -0.86807451765682
H           -2.92874091427634       -2.81679664220435        0.43406756990326
H            1.61623716812036       -2.92267394220583        0.06499125047215
25
 energy: 34.414195552153 xtb: 6.6.1 (8d0f1dd)
C            3.27900631270422        1.26798158554038        0.10362377593145
N            2.37323118310861        0.15175135815311        0.06559356576080
C            2.71218449743814       -1.16963175179762        0.07569149348031
N            1.56856452455892       -1.92037940558599        0.08081169588907
C            0.46934366679293       -1.11881045280978        0.08702905253583
C            0.97113598570409        0.20227843482541        0.05691054804745
C            0.16921457521330        1.35752741633778        0.01028373735009
O            0.52088854743288        2.53836827361855        0.01427165638894
N           -1.20591594863283        0.99641938793507       -0.05454978030801
C           -2.16995553433628        2.07624781769961       -0.14452285207489
C           -1.73790054224875       -0.25603843217421       -0.06227207689142
O           -2.92938373094382       -0.44524166340389       -0.19962130491147
N           -0.90685069030646       -1.37742677339822        0.10705651030116
C           -1.69829978491711       -2.65122236971747        0.02858056085154
H            3.89914255052244        1.24084942251893        1.00285192457416
H            3.93966797140402        1.26506356961765       -0.76591639710156
H            2.69452648622500        2.18516484249150        0.10056360729443
H            3.71601829653324       -1.53386898942756        0.11968014455977
H           -1.61539758262260        3.01199565126162       -0.11689958242577
H           -2.73626864911189        1.99402315904159       -1.07159202044412
H           -2.86019555240351        2.01608683589623        0.69635846188336
H           -0.96746258910465       -3.47924208552865        0.03760694539054
H           -2.26058690595765       -2.60270348651901       -0.87908788908018
H           -2.92134795087929       -2.83516144620988        0.45947833626302
H            1.60885553176315       -2.92500229619309        0.07510378288274
25
 energy: 33.440562007360 xtb: 6.6.1 (8d0f1dd)
C            3.27959572868313        1.26945196604679        0.10511449523492
N            2.37380709762516        0.15527841593949        0.06369200724765
C            2.71684642397812       -1.17405182944505        0.07353051150373
N            1.56565098008298       -1.92246399423679        0.07789546421948
C            0.47055890698747       -1.11815769957819        0.08117427652039
C            0.97013115833657        0.20356832025600        0.05472215218109
C            0.16860619359367        1.35541741664872        0.00924853408986
O            0.52142409365398        2.53985787148412        0.01104973250544
N           -1.20860579402733        0.99640439425274       -0.05497595888297
C           -2.17122278632961        2.07677532469231       -0.14311038047245
C           -1.73880748768578       -0.25418160683524       -0.05931503852814
O           -2.93241374196651       -0.44453326675028       -0.19190124504361
N           -0.90708495330459       -1.37659377589637        0.10728811325912
C           -1.70100926005895       -2.64931030865633        0.02338865587141
H            3.89227729870938        1.24849112015730        1.01070064321724
H            3.95008548838275        1.26108935543238       -0.75806192726891
H            2.69554899946781        2.18725632468337        0.09126791819436
H            3.71892908829620       -1.53931544446762        0.12083065907692
H           -1.61468904828095        3.01124639615115       -0.11555456490121
H           -2.73802071472707        1.99472481705338       -1.06997858093146
H           -2.86072012942288        2.01572926778351        0.69822492756863
H           -0.96411136751027       -3.46840052807773        0.04567358768108
H           -2.26024512743061       -2.61184607662667       -0.88295923611527
H           -2.91424794249183       -2.84011985262918        0.45593675660491
H            1.59993156337526       -2.92728800520974        0.07315239331504
25
 energy: 32.161953529763 xtb: 6.6.1 (8d0f1dd)
C            3.27945575156421        1.26918531367940        0.10550847626246
N            2.37321216858108        0.15698613058321        0.06170625840685
C            2.71971662493096       -1.17790263005432        0.07055062188551
N            1.56187150061631       -1.92440176262163        0.07821809225105
C            0.47097773489483       -1.11666766169860        0.07942189107351
C            0.96940654762164        0.20420704984272        0.05445734712215
C            0.16644653743094        1.35372465849730        0.00741126569407
O            0.52222879780711        2.54002898639905        0.00496080221502
N           -1.21102624961852        0.99666206325786       -0.05522681270320
C           -2.17257743807546        2.07768576581885       -0.14380219330972
C           -1.73982394888458       -0.25291378292793       -0.05238319418885
O           -2.93466753281341       -0.44606180713908       -0.17896663266313
N           -0.90634257041385       -1.37545604515800        0.11836216178790
C           -1.69913266912077       -2.64955666281810        0.01653650916319
H            3.88362933905170        1.25562446138410        1.01917524958772
H            3.96100011993759        1.25309540396903       -0.75134647410479
H            2.69528677920017        2.18821194483364        0.07872734058658
H            3.71964189534090       -1.54474931715547        0.12365832590886
H           -1.61449082751345        3.01122855877251       -0.11741848345459
H           -2.73949309748201        1.99486740011402       -1.07060677150992
H           -2.86178058089856        2.01716322710273        0.69773252265162
H           -0.96070551088101       -3.46496775960645        0.02840204851239
H           -2.26640996653066       -2.59215836368524       -0.87985141257865
H           -2.89270584575654       -2.85538440664285        0.45730570190538
H            1.58849710894750       -2.92942216257465        0.07450125564584
25
 energy: 31.165948074879 xtb: 6.6.1 (8d0f1dd)
C            3.27881409611436        1.26854295317173        0.10540521572422
N            2.37234283883688        0.15695502361321        0.06100968968730
C            2.72027704329614       -1.17860707148026        0.06833112868605
N            1.56124646305230       -1.92464444921971        0.07888586497783
C            0.47095552704215       -1.11674157965609        0.07868174261786
C            0.96943589321004        0.20340084393286        0.05488315347989
C            0.16556490224416        1.35330490628373        0.00678977071911
O            0.52210427808060        2.53908584395787        0.00380162428680
N           -1.21127365160397        0.99653691194057       -0.05558349699698
C           -2.17279662556140        2.07755813353646       -0.14464992043091
C           -1.73979928989591       -0.25313987580498       -0.04949065517202
O           -2.93500304580584       -0.44728715378892       -0.17471705751254
N           -0.90615172483670       -1.37593769222779        0.12414242000189
C           -1.69934742514348       -2.65050156260185        0.01374139698908
H            3.87962851475651        1.25788086155669        1.02227981675401
H            3.96466917859528        1.24916423192273       -0.74878842839109
H            2.69545696164777        2.18852176402838        0.07348638826839
H            3.71977556311222       -1.54488829057641        0.12553981889364
H           -1.61461732134979        3.01101386492000       -0.11829760214682
H           -2.73956072615021        1.99485251974493       -1.07154465326730
H           -2.86228044372077        2.01731032737986        0.69667580391755
H           -0.96241169780207       -3.46375626123872        0.01859849962441
H           -2.27290387064110       -2.57881754320893       -0.87719099233420
H           -2.87819371547264       -2.86100887632059        0.46076276812467
H            1.58628294593161       -2.92976922769267        0.07428159964640
25
 energy: 29.871256278076 xtb: 6.6.1 (8d0f1dd)
C            3.27774476824407        1.26750659633999        0.10507199909003
N            2.37079111842840        0.15638420543186        0.06069541693228
C            2.71968375797576       -1.17859315767169        0.06544124686598
N            1.56104038075511       -1.92435235726438        0.08014836534530
C            0.47003064861128       -1.11760879020184        0.07803290253174
C            0.96918419021986        0.20188379054563        0.05572794387645
C            0.16522105979416        1.35332196949910        0.00681097864762
O            0.52166693958212        2.53771026181137        0.00441998973471
N           -1.21090923631797        0.99664148705053       -0.05611631592158
C           -2.17250695218763        2.07748491068546       -0.14580130450731
C           -1.73973654067772       -0.25318471073531       -0.04788136796203
O           -2.93509083940515       -0.44697161874592       -0.17334214123238
N           -0.90737188945177       -1.37683588642730        0.12849509878797
C           -1.70286461920177       -2.65097947517272        0.01135026255584
H            3.87738390380331        1.25807144558724        1.02350782870254
H            3.96568647639337        1.24660006628655       -0.74803730605160
H            2.69568562543188        2.18873676147205        0.07115426786792
H            3.71940759879683       -1.54308895920522        0.12822190293804
H           -1.61458237423003        3.01104533336602       -0.11900056096603
H           -2.73883015926738        1.99504254549148       -1.07297135861234
H           -2.86256676554299        2.01730377693239        0.69508322175663
H           -0.96400769985099       -3.46562853661333        0.00931612319981
H           -2.27774402693848       -2.56766962184435       -0.87366268909536
H           -2.86217866854555       -2.86418000573504        0.46730085943316
H            1.58707797151741       -2.92961142871051        0.07306853222989
25
 energy: 28.565665017662 xtb: 6.6.1 (8d0f1dd)
C            3.27724998439860        1.26713569159024        0.10490138276241
N            2.37020444755363        0.15590943179118        0.06084607946322
C            2.71906465803292       -1.17788151600759        0.06331819953916
N            1.56203783853327       -1.92391069302786        0.08145846639326
C            0.46982213201365       -1.11863912666004        0.07793420928607
C            0.96923510986907        0.20092096838818        0.05619154252256
C            0.16559640267699        1.35347865409682        0.00720491128165
O            0.52096228789837        2.53714704189115        0.00602808978661
N           -1.21016920565351        0.99599268078829       -0.05648918454735
C           -2.17217417712998        2.07655018407479       -0.14637714338286
C           -1.73907586709406       -0.25421322408445       -0.04876390591955
O           -2.93424777503982       -0.44722297370989       -0.17554918686983
N           -0.90769339341037       -1.37814527103740        0.12863908132554
C           -1.70467894888122       -2.65184287439411        0.01073867715723
H            3.87806278429234        1.25653753302251        1.02238060249331
H            3.96379032489141        1.24721969790158       -0.74908438851626
H            2.69575436787622        2.18865553133529        0.07294820300549
H            3.71929509806548       -1.54079358793025        0.13091271346856
H           -1.61478365716174        3.01045891910042       -0.11909170328462
H           -2.73818744469227        1.99446887943992       -1.07374570171562
H           -2.86265394461213        2.01640282099000        0.69419848566571
H           -0.96966474297628       -3.46418501950047        0.00817757603621
H           -2.28649490038961       -2.56316738101127       -0.87551890871695
H           -2.84958514535525       -2.86271745511422        0.47393953459100
H            1.59054843423039       -2.92913030976076        0.07183626432227
25
 energy: 28.328383670756 xtb: 6.6.1 (8d0f1dd)
C            3.27730960871556        1.26716141103799        0.10492161095395
N            2.37024374502584        0.15567037341753        0.06118757679908
C            2.71827669429988       -1.17770725128653        0.06293608934415
N            1.56198663139157       -1.92378029798077        0.08172007765838
C            0.46927425576260       -1.11890696602660        0.07827755701983
C            0.96887872637824        0.20102614658738        0.05603920273571
C            0.16609656010941        1.35370689115242        0.00763195419310
O            0.52089391992238        2.53741117555269        0.00686983310827
N           -1.21014564542520        0.99622969678458       -0.05634576817764
C           -2.17204938964377        2.07680077964243       -0.14617691023625
C           -1.73931937439966       -0.25389775483572       -0.05030815999297
O           -2.93430380494886       -0.44597184204213       -0.17805786803169
N           -0.90858360023510       -1.37791904874068        0.12577173123724
C           -1.70638508710169       -2.65090122287853        0.01124853746242
H            3.88027975361927        1.25474031264638        1.02043217075794
H            3.96128843103256        1.24939872681249       -0.75067141629186
H            2.69560577935695        2.18831861195547        0.07624308862358
H            3.71873721868581       -1.54042367753478        0.13184161114155
H           -1.61462116150848        3.01068865099105       -0.11885520261277
H           -2.73801437730444        1.99459427486725       -1.07355786742788
H           -2.86247812932520        2.01655696661812        0.69441920725445
H           -0.96923887366166       -3.46579290262487        0.01119954501724
H           -2.28397098994814       -2.56924467933687       -0.87657228373317
H           -2.84961556589463       -2.85976520272628        0.47557587365769
H            1.59206934303287       -2.92896456987989        0.07126370568690
25
 energy: 28.056216164707 xtb: 6.6.1 (8d0f1dd)
C            3.27753820730310        1.26736471319825        0.10505600805591
N            2.37064820840230        0.15549564734713        0.06147644806055
C            2.71780960339945       -1.17785821598326        0.06241862781365
N            1.56170893330900       -1.92393130437895        0.08172902884139
C            0.46902959149628       -1.11890319623496        0.07881443896353
C            0.96858348707490        0.20142714454540        0.05565858311896
C            0.16639722505504        1.35370403181813        0.00784718053928
O            0.52093163482608        2.53781038514408        0.00710046496751
N           -1.21045502785836        0.99637114396238       -0.05605056927062
C           -2.17215279675818        2.07707590831572       -0.14583951317387
C           -1.73969809383236       -0.25369423825587       -0.05165865191192
O           -2.93451939660196       -0.44537800804081       -0.17978904572212
N           -0.90896846169871       -1.37749165965577        0.12294360183663
C           -1.70676039969729       -2.65004098276940        0.01189202654007
H            3.88223240547243        1.25342770695999        1.01886844886267
H            3.95928206186366        1.25154310753047       -0.75189135690376
H            2.69521155022955        2.18789086837477        0.07907520185962
H            3.71819883270414       -1.54098736135020        0.13293269873257
H           -1.61448970768949        3.01082460193711       -0.11869558104544
H           -2.73816761089415        1.99465767925844       -1.07317653570425
H           -2.86243200322116        2.01687872896279        0.69486776981141
H           -0.96904569145336       -3.46610773928006        0.01436454248812
H           -2.28205583282065       -2.57507397419248       -0.87849393906770
H           -2.84904345237672       -2.85692577285769        0.47651433205297
H            1.59243140170257       -2.92905061218311        0.07106968640209
25
 energy: 27.823169368546 xtb: 6.6.1 (8d0f1dd)
C            3.27760942212701        1.26744881349015        0.10515908570902
N            2.37093015869233        0.15530805588206        0.06162593795553
C            2.71768093186334       -1.17814329326076        0.06155425242472
N            1.56134832072454       -1.92418988004223        0.08153408471730
C            0.46896728260932       -1.11878833360496        0.07928991643034
C            0.96844238909927        0.20164773577369        0.05545077717300
C            0.16633102426642        1.35354758370708        0.00780993005203
O            0.52100030830051        2.53789431052694        0.00677929148502
N           -1.21080996495656        0.99645151676507       -0.05579175679080
C           -2.17231021801027        2.07729230917444       -0.14571099328641
C           -1.74002992822461       -0.25358926028004       -0.05197360185795
O           -2.93478946348329       -0.44546509178900       -0.17998009093368
N           -0.90896790407119       -1.37717206352968        0.12191187253012
C           -1.70647460966922       -2.64965373983184        0.01219529644162
H            3.88281500467641        1.25307738069236        1.01841644093533
H            3.95860319890984        1.25230973507544       -0.75219414581656
H            2.69483172187743        2.18757935090252        0.07997920961274
H            3.71779205145611       -1.54180839506276        0.13406411054231
H           -1.61442524380653        3.01089947648216       -0.11873348288104
H           -2.73836087114553        1.99474509550261       -1.07301918256526
H           -2.86253800098488        2.01723663425656        0.69503982058074
H           -0.96862227295874       -3.46554067073645        0.01410867453297
H           -2.28150109832371       -2.57662399027675       -0.87914009030345
H           -2.84704537173266       -2.85614858014905        0.47736577935547
H            1.59173780070077       -2.92928609749548        0.07129276010415
