  72
        -99.34101007
 N         -1.4161532294        2.9198601901        2.1108634454
 C         -2.5404451577        2.5664806180        1.8515308171
 C         -3.6789465377        2.2335621863        1.2761587566
 C         -3.9020135700        0.8401525199        0.9058716966
 C         -4.8068946005        0.4791916965       -0.0998429502
 C         -4.9835975520       -0.8430327857       -0.4682359350
 O         -5.8096810518       -1.2774555389       -1.4404760429
 C         -6.5920781998       -0.3479698117       -2.1535320589
 C         -4.2521012129       -1.8647444401        0.1995379394
 O         -4.4972120126       -3.1222404144       -0.2174017931
 C         -3.8632560070       -4.1974855955        0.4339612046
 C         -3.3587784828       -1.5029798603        1.1999412024
 C         -3.1787132563       -0.1745426703        1.5400582707
 C         -1.4395812623        1.9226057054       -2.3119868613
 C         -0.4257815245        0.9175302650       -2.0596951299
 C         -0.3499253923        0.5720591345       -0.5130835138
 N          0.4840481347       -0.5259708152       -0.1775543001
 C          1.8979149535       -0.3346269465       -0.0031388628
 C          2.7682914324       -0.5144916388       -1.2700822673
 C          4.2170611522       -0.3512114484       -0.9203650078
 C          4.8462053062        0.8799379748       -1.0401957045
 C          6.1820889028        1.0330761462       -0.7057248043
 C          6.9205797881       -0.0441678014       -0.2344536816
 O          8.2206088881       -0.0164573570        0.1090997691
 C          8.9491712818        1.1802113304       -0.0412122709
 C          6.2811829501       -1.3086726601       -0.0918305140
 O          7.0676949986       -2.2965524022        0.3758201655
 C          6.5337360177       -3.5895473767        0.5335392134
 C          4.9443382718       -1.4362674056       -0.4359380943
 C          0.0539667848       -1.8229572321       -0.6228669642
 C         -4.7723064716        3.2795844569        1.1547538636
 C         -5.7408216684        3.1148916733        2.3297044606
 C         -4.2060099317        4.6954879498        1.1079225700
 H         -5.3648175280        1.2449785101       -0.6119659809
 H         -7.2758691149        0.1931979031       -1.4928973310
 H         -7.1691277856       -0.9378956904       -2.8629282785
 H         -5.9685086090        0.3659083274       -2.7013159029
 H         -4.1151215915       -4.2259426300        1.4983608226
 H         -4.2406956801       -5.0961660669       -0.0498468564
 H         -2.7753339918       -4.1541789366        0.3176870477
 H         -2.8014226036       -2.2573503934        1.7313844325
 H         -2.4836050590        0.0783639338        2.3260418677
 H         -2.4788584382        1.6716286067       -2.2059722457
 H         -1.1842660644        2.9524221542       -2.4708682740
 H         -0.6801156076       -0.0232277886       -2.5566864913
 H          0.5561124574        1.2551415944       -2.3867935682
 H         -1.3677359343        0.3446676490       -0.1864958699
 H         -0.0048584357        1.4614202161        0.0147839467
 H          2.2406440750       -1.0584502157        0.7445874356
 H          2.0612109585        0.6670533328        0.3990283588
 H          2.4844563163        0.2262827044       -2.0170705003
 H          2.5970678879       -1.5093569873       -1.6826488923
 H          4.2959944983        1.7319984529       -1.4092241095
 H          6.6444283076        1.9999599938       -0.8194672900
 H          8.5512365417        1.9746712815        0.5972955246
 H          8.9553094680        1.5162241142       -1.0823820667
 H          9.9655474328        0.9439543624        0.2681061996
 H          7.3541325499       -4.2013146470        0.9038234487
 H          5.7172417247       -3.5997522485        1.2624998921
 H          6.1801640659       -3.9963234283       -0.4188560807
 H          4.4535428515       -2.3924650005       -0.3429644396
 H          0.2030425236       -1.9810488156       -1.6990943622
 H         -1.0084160943       -1.9369928083       -0.4067834723
 H          0.6104227048       -2.5894256412       -0.0852815758
 H         -5.3215751972        3.1014390907        0.2260341894
 H         -5.2319146914        3.3151627839        3.2703842909
 H         -6.1407214921        2.1039106722        2.3616678329
 H         -6.5682879245        3.8131823709        2.2323922174
 H         -3.6950251685        4.9421584114        2.0360598064
 H         -3.4996107063        4.8014297126        0.2873739533
 H         -5.0123847081        5.4107665800        0.9636242312
 H         -1.0177859246        2.9974129236        3.0348497759
