  25
        -42.17306953
 C          3.4261862595        1.9575693569       -0.0966106944
 N          3.3884258276        0.9168489283       -0.7819815928
 C          1.5133158283       -1.0610644114        0.3048873592
 N          0.9443150135       -2.3027377684        0.2130450011
 C         -0.3899709297       -2.2104957716        0.0686687477
 C          0.4873489604       -0.1648708274        0.2068212311
 C          0.1086055503        1.2535557745        0.1816209682
 O          0.7809236862        2.2483992741        0.2572118962
 N         -1.2808545347        1.2218155780        0.0317343088
 C         -2.0959838893        2.4151031388       -0.0356396119
 C         -1.8144068418       -0.0361323146       -0.0450452753
 O         -2.9446187129       -0.3905219842       -0.1751051164
 N         -0.6742286514       -0.9020793346        0.0661233753
 C         -1.3523293429       -3.3119656296       -0.0548094452
 H          3.3382433370        1.8768991249        0.9799451285
 H          3.4693965845        0.9980531408       -1.7916502936
 H          3.5478133409        2.9701412159       -0.4833012424
 H          2.5680057082       -0.8906715758        0.3919569298
 H         -1.4290256663        3.2746461340       -0.0134473072
 H         -2.6792318854        2.4155308576       -0.9559265319
 H         -2.7774765362        2.4522966692        0.8141980338
 H         -1.2832064137       -3.9825500882        0.8021429405
 H         -1.1524247116       -3.9028809128       -0.9496243818
 H         -2.3623538848       -2.9125178514       -0.1152495080
 H          1.4615689357       -3.1716214620        0.2496577413
