25
 energy: -42.136032096793 gnorm: 0.002311295869 xtb: 6.6.1 (8d0f1dd)
C            3.90973768145632        2.87043726025203        0.17756753774106
N            2.20892180135155       -0.65160386979067       -0.09868589809129
C            2.26330899051225       -1.94820805770000       -0.14302429026622
N            1.01772604572458       -2.51990173909299       -0.13490541640068
C            0.13077447312307       -1.49493621596875       -0.08316653030120
C            0.89507327498053       -0.32111606963915       -0.06200198644637
C            0.25846471656501        0.97515361414664        0.00038122890047
O            0.82138518633247        2.04696363138960        0.02334773298652
N           -1.13299033742872        0.86938740581342        0.03369281487450
C           -1.90439220882322        2.10175766255278        0.09969386977679
C           -1.89708833894317       -0.28505012713074        0.01394047976076
O           -3.09816552540166       -0.25234310905510        0.05167791563974
N           -1.21280310024740       -1.51117028923028       -0.05339338417535
C           -1.97637773154542       -2.74064225781831       -0.07853228129414
H            4.29254352406707        3.08929043734071        1.15661061287897
H            4.56908543258925        2.90771163375642       -0.67005495272308
H            2.86836540503398        2.62328699326985        0.04857838664904
H            3.17032707369312       -2.51786312847568       -0.18182590728072
H           -1.21359455166892        2.94013894054610        0.05068925864896
H           -2.61167933956694        2.13876979597765       -0.72946783832632
H           -2.47293709263677        2.13490097484824        1.03016982772629
H           -1.72236005324817       -3.36368516081969        0.78049239423856
H           -1.78509340110832       -3.28849543448318       -1.00248057844112
H           -3.03243858849163       -2.47702331556652       -0.03025195020978
H            0.81463817777965       -3.50752103352183       -0.16787942796698
