  25
        -41.99299232
 C          3.0366545148        1.6607984061       -0.3626772333
 N          2.3353326126        0.4711859860       -0.6371263499
 C          2.1111181851       -2.8276861985        1.1232524848
 N          0.9781764620       -2.2573378181        0.9753531536
 C          0.5769128452       -1.1133261289        0.1824359061
 C          1.4417897038       -0.1873267323       -0.1907101634
 C         -0.8558038835        2.1825438091       -0.3185988952
 O         -0.6628433679        3.0180356832       -1.0802407545
 N         -1.0103829768        1.1748504242        0.4030399939
 C         -1.0897772161        1.1946780555        1.8671189960
 C         -1.6287408752       -0.1223010355       -0.2380268800
 O         -2.7475223769       -0.0441240471       -0.6212065915
 N         -0.7812205214       -1.1380484528       -0.2337094518
 C         -1.2723739322       -2.3970028854       -0.8011383224
 H          2.7042170754        2.1743997825        0.5422483896
 H          4.0924907373        1.4011026137       -0.2740047561
 H          2.9361666595        2.3151388499       -1.2296732694
 H          2.9525200668       -2.3939297387        0.5797476449
 H         -0.7671329506        2.1601039614        2.2483253942
 H         -2.1197339577        1.0107788959        2.1737953824
 H         -0.4428303676        0.4127549127        2.2606507965
 H         -1.6498192201       -3.0588673929       -0.0205746867
 H         -0.4629864569       -2.8878780386       -1.3381403576
 H         -2.0862381243       -2.1814269614       -1.4905825245
 H          0.1856106850       -2.6681084886        1.4686601153
