25
 energy: 41.674779481229 xtb: 6.6.1 (8d0f1dd)
C            3.27873190489066        1.89101628252186        0.12302304470895
N            2.42049995134605       -0.16018103709389        0.03563790030262
C            2.60405518622192       -1.45620421426186        0.06884825943145
N            1.42079433073155       -2.16738428296062        0.02876502734689
C            0.41926035471497       -1.24048557996623       -0.01443881692188
C            1.04592139609837        0.00829337776651       -0.00101033719219
C            0.22719288318418        1.20054762038383       -0.04005547680994
O            0.58093136796321        2.35547936927040       -0.09844207183765
N           -1.16103862399274        0.92870930940186       -0.04403534445817
C           -2.04940703918267        2.09009623727763       -0.04193676536827
C           -1.76999271407923       -0.28660189396143       -0.06142321914628
O           -2.97742708599327       -0.38862576860228       -0.08273999970489
N           -0.94168416961172       -1.42071311117898       -0.05354667252340
C           -1.65561298600686       -2.67801691076813       -0.07160763736455
H            3.73407207435666        1.98559263091191        1.06530477931542
H            3.92314075146952        1.85106139576835       -0.71908782630705
H            2.32459301865279        2.33392285490701        0.02033541447410
H            3.54693960433231       -1.98196140925891        0.05851116462298
H           -1.43130253009419        2.98096213342458       -0.02457940719382
H           -2.66803968821293        2.10267543076431       -0.93663938538644
H           -2.67356237167801        2.08192773696967        0.84668365784033
H           -1.46142567267473       -3.27197136992567        0.82191648344660
H           -1.43376016046087       -3.25838106251744       -0.96744308071402
H           -2.71722531834468       -2.40824715317769       -0.08595979581289
H            1.30855822189836       -3.17003909898484        0.02537025624513
