25
 energy: 42.203442047210 xtb: 6.6.1 (8d0f1dd)
C            3.38121816188243        2.26135623796846        0.15220723191221
N            2.40510932251101       -0.33212299995691        0.02881022705080
C            2.52506957269441       -1.62250742344148        0.03417043130132
N            1.33201901189135       -2.30898258604172        0.01252314846060
C            0.36827751357349       -1.34498452500175       -0.02232249702723
C            1.04919879976300       -0.12131544848298       -0.01649924404954
C            0.26919305612713        1.09524739665613       -0.06670279536329
O            0.66764122450609        2.22680635453671       -0.13703296077097
N           -1.10945441890994        0.87317796142459       -0.05179744863661
C           -1.95203626565120        2.07408353166563       -0.03496272348772
C           -1.76864144888380       -0.32489243115206       -0.06509074836357
O           -2.97988958795547       -0.34556498321911       -0.08041872227148
N           -0.99195420799402       -1.49180893193035       -0.06111960522145
C           -1.76951538683201       -2.71618152993983       -0.08104696244338
H            3.84838835376073        2.42902229763048        1.06246589281101
H            3.85698612593756        2.30853245337537       -0.77153938562403
H            2.35338165220134        2.49210184718811        0.14484572847930
H            3.44822901316194       -2.16422926436641        0.03540261145907
H           -1.29172504109310        2.92919774562849       -0.02379962061866
H           -2.57915694020938        2.12346040818262       -0.92209911185748
H           -2.55522898463739        2.09981649092899        0.86654030627283
H           -1.62099654972442       -3.32733159720918        0.81009266197481
H           -1.59233454146524       -3.31379828308787       -0.97568943694367
H           -2.82045067623684       -2.37902603424767       -0.09714913153461
H            1.21072291821684       -3.31075059277357        0.02626015166024
