25
 energy: 31.956725758211 xtb: 6.6.1 (8d0f1dd)
C            3.69946916051045        3.02691108652900        0.17799587851673
N            2.32278182160959       -0.65878778645271       -0.03249602546204
C            2.36391904600431       -1.95424912232733       -0.00984788295790
N            1.11386182350799       -2.53358225863876        0.00285730039849
C            0.22653891428444       -1.50276034900722       -0.02285063076215
C            0.99862168318823       -0.34124728545443       -0.03561911932371
C            0.33062003222441        0.93524827108516       -0.05124504231656
O            0.83697382356424        2.03294511067955       -0.05558043644219
N           -1.07072970389678        0.81446912157358       -0.04096559951282
C           -1.83423422394136        2.05766508751525       -0.02727835734760
C           -1.83366665122127       -0.33197417676367       -0.06183613730418
O           -3.04488337156291       -0.29017478524469       -0.08281874282046
N           -1.13798521406560       -1.54471954369262       -0.05493139029747
C           -1.91403216630634       -2.77546321386676       -0.07732947547679
H            4.14371850623333        3.21421340763073        1.12356351738104
H            4.21588455591470        3.08272401065750       -0.74672272808206
H            2.67252298122720        2.79344033221868        0.13288539039407
H            3.27034170271322       -2.52768954564185        0.01918482582613
H           -1.14050948096301        2.89011221953400       -0.01218359001776
H           -2.45236176677654        2.12130774815965       -0.91799773307386
H           -2.47777854759046        2.08808026454424        0.84814569015801
H           -1.69692592789465       -3.37248139953639        0.81159606368711
H           -1.67269273228149       -3.35524621422594       -0.97066285597888
H           -2.97602746841351       -2.52523566351071       -0.08942146034840
H            0.93292117383787       -3.52710298595316        0.00795401904327
