25
 energy: 31.736207310989 xtb: 6.6.1 (8d0f1dd)
C            3.26143110741664        1.35695311140383        0.08122289512668
N            2.41766631965296        0.18930456954093        0.04254427334210
C            2.78640266946132       -1.14115222956677        0.08553911293265
N            1.65245529130642       -1.91934025038661        0.05640452045137
C            0.52198506565943       -1.17380887640077       -0.00203408836864
C            1.01523295436189        0.17534758872166        0.00086349737429
C            0.21390988986734        1.31735645674981       -0.02706873960306
O            0.55067637780187        2.50745466466500       -0.04927287899215
N           -1.15435613362924        0.93537398085266       -0.02627373162792
C           -2.12509154599521        2.03083217695010       -0.04503445280876
C           -1.67094183963209       -0.32382043081317        0.01057197724642
O           -2.88740778542473       -0.39874977619420        0.07692913672947
N           -0.88671156892679       -1.51117193562251       -0.02392182180040
C           -2.01760402451484       -2.74252036891157       -0.12395283086986
H            3.80915226340391        1.41049673688556        1.02990920371440
H            4.00131236917164        1.33976367851382       -0.72731830188394
H            2.64731165580037        2.25898455949169       -0.01628323549106
H            3.79081144487027       -1.49838432289833        0.08614652979854
H           -1.55681681594436        2.96010318228147       -0.03311996324444
H           -2.73164258604973        1.97318266712328       -0.94633951947542
H           -2.76870514992199        1.97890228326095        0.82923263452514
H           -1.94348931036452       -3.39898582921090        0.73703346418424
H           -1.92781155989983       -3.31082717648559       -1.03928728799329
H           -2.95068430073136       -2.17119891142909       -0.10477863647508
H            1.68339451655002       -2.92561658942332        0.06515655202045
