25
 energy: 10.083604133154 xtb: 6.6.1 (8d0f1dd)
C            3.25934186433422        1.29393285376507        0.08601036543583
N            2.38141228696494        0.15281504795418        0.02616443449827
C            2.73229807990855       -1.18840778960475        0.05866678017974
N            1.57829543439403       -1.93658741680677        0.04033410534575
C            0.47457998576378       -1.15906408608700        0.00249899404050
C            0.97929427522243        0.17010129269467        0.00255925818342
C            0.17400924938560        1.32184827861221       -0.02021363434142
O            0.51063502953390        2.51074961519549       -0.04128518833834
N           -1.20079920534554        0.96114510214984       -0.02626382462687
C           -2.16440087822236        2.06078905386368       -0.04694296263131
C           -1.71997000734731       -0.29096789248359       -0.01972655123377
O           -2.93145711164869       -0.39538123687303       -0.00159139092966
N           -0.91025687622395       -1.46451859920118       -0.03040296011389
C           -1.83475304372496       -2.68630133502692       -0.10058494091815
H            3.78173671198447        1.34011234637613        1.04980882392381
H            4.02005860394373        1.24091446345433       -0.70220312966243
H            2.66752951638350        2.21244920941172       -0.03207528124367
H            3.72806133281223       -1.57118415001680        0.06953950905819
H           -1.59955715443249        2.99270601495934       -0.02967119867395
H           -2.76903608115724        2.00726540386760       -0.95031637206166
H           -2.81153881429455        2.00426280390334        0.82502035572813
H           -1.69345834644027       -3.33782598830507        0.76868490436909
H           -1.67233942584298       -3.27501158065912       -1.00380927143328
H           -2.83704418007701       -2.27280871089989       -0.09758650384466
H            1.57961579362499       -2.94047201246559        0.04367316179163
