25
 energy: 15.968111652577 xtb: 6.6.1 (8d0f1dd)
C            3.25812613190274        1.31597307638424        0.08632020232344
N            2.39334102498787        0.16324504378704        0.02816330455292
C            2.74999337004119       -1.17401715951901        0.06635723153039
N            1.60335093354125       -1.93285113719567        0.04446901388292
C            0.48721863931857       -1.17189198748766       -0.00085883355477
C            0.98815964750838        0.16814613443255       -0.00220103706072
C            0.18727743897341        1.31751829325680       -0.02456169306223
O            0.52434716299918        2.50673730540765       -0.04568290308049
N           -1.18515402531619        0.95015668640298       -0.02762738039843
C           -2.15021249624107        2.04954810105364       -0.04643793789587
C           -1.70381962691273       -0.30462555245612       -0.01513556783698
O           -2.91756323965258       -0.39519816831804        0.02133253546543
N           -0.90780958353011       -1.48861238906234       -0.03647211610606
C           -1.89033252624174       -2.70377751049832       -0.10683945798207
H            3.78931485381299        1.36189243801962        1.04558976980628
H            4.01442094721445        1.27655189554380       -0.70759660210899
H            2.65364567652828        2.22926645822245       -0.01932571631536
H            3.74932877177598       -1.54831198466045        0.07441259231332
H           -1.58419757463682        2.98045485824838       -0.03008936979170
H           -2.75480454207037        1.99766419982136       -0.94943211421751
H           -2.79501541876222        1.99637897394299        0.82682469828773
H           -1.77808088431054       -3.36106428473711        0.76010355128051
H           -1.75821250921220       -3.29202505737816       -1.01266143455203
H           -2.87620621210133       -2.24027129873769       -0.09976160245476
H            1.61501377412760       -2.93729226996147        0.04980402007760
