25
 energy: -2.654074447923 xtb: 6.6.1 (8d0f1dd)
C            3.25829677317811        1.23075578497221        0.08701047923882
N            2.34482413788504        0.12683327356069        0.03046128840464
C            2.66965823313634       -1.21950170262241        0.04051212832791
N            1.49962248971205       -1.93682977430334        0.02133173772613
C            0.44145324077620       -1.10349655184866       -0.00002765153862
C            0.95000625162669        0.20393542034591        0.01190757034471
C            0.13898461784492        1.35735841088881       -0.00970253934238
O            0.48532866161669        2.54392801380784       -0.01987600346075
N           -1.24398831720298        1.00233564323832       -0.02872274785775
C           -2.20165877451416        2.10077084418598       -0.04884051909296
C           -1.77000367375721       -0.24840491601574       -0.03674754807200
O           -2.97269503101690       -0.42628404925034       -0.04890603534083
N           -0.91381378632743       -1.37812887380912       -0.02984685299567
C           -1.64547369665423       -2.65635905792475       -0.07667202711688
H            3.75537613809903        1.27608935736104        1.06243139623062
H            4.02698134513130        1.13554868053672       -0.68662049378495
H            2.69653699396975        2.15786242393155       -0.06402745532999
H            3.65350131342259       -1.62793495357922        0.05450017674048
H           -1.63935464615312        3.03546606384303       -0.02629430067715
H           -2.80656859223068        2.04331130584155       -0.95334867563893
H           -2.85639771162740        2.02875886936739        0.81854753140036
H           -1.43228436595953       -3.26721233348121        0.80520482677066
H           -1.40707513760040       -3.22407598245080       -0.97796971415009
H           -2.69750697490960       -2.39855783662733       -0.08389144259206
H            1.46994872729525       -2.94008682574298        0.01697755325848
