25
 energy: -4.832368433691 xtb: 6.6.1 (8d0f1dd)
C            3.25465531855340        1.21035806883233        0.08749760569407
N            2.33184400506126        0.11837562985469        0.03216912551655
C            2.64661130945909       -1.22772899464973        0.03662584011243
N            1.47212947283200       -1.93607401228703        0.01441819038570
C            0.42792256621486       -1.08540418583741       -0.00317575933142
C            0.94053863053790        0.21571805693922        0.01225278739057
C            0.13034457379016        1.37061888834465       -0.00823183374705
O            0.48774102182000        2.55445208299533       -0.01331726278857
N           -1.25482444922706        1.01905566064433       -0.02997380488063
C           -2.20994037186023        2.11744954496156       -0.04890222094600
C           -1.78793546216818       -0.23087881369881       -0.04172522557805
O           -2.98922047493029       -0.41957936353542       -0.06095712627541
N           -0.92081264036432       -1.34880012774109       -0.03223385337670
C           -1.58740513976806       -2.64703025628686       -0.07025926046538
H            3.74355169660777        1.25582760814818        1.06625770108125
H            4.02487025763047        1.10103011750640       -0.68146380556028
H            2.70122816802239        2.13855075430076       -0.07393996398622
H            3.62670981130978       -1.64270829757671        0.04986675586695
H           -1.64951544217405        3.05245199921204       -0.02545777944915
H           -2.81481860022052        2.06064919588855       -0.95344143018600
H           -2.86483673963321        2.04408961627121        0.81842975906460
H           -1.34365658243451       -3.24113231653627        0.81515550566110
H           -1.31936379033723       -3.20799648043725       -0.96896779386919
H           -2.65446167393201       -2.45074965676811       -0.08067183896685
H            1.43430262289977       -2.93936682598623        0.00743917138080
