25
 energy: 38.935509867921 xtb: 6.6.1 (8d0f1dd)
C            3.45107627391103        1.55407505708160        0.07227723719055
N            2.61907667288991        0.38202733763736        0.06085812971223
C            3.02426304472561       -0.88001445265204        0.07515999387248
N            1.95833186944785       -1.71161619581192        0.06346232314729
C            0.81610847938477       -0.93714985435252        0.03789285234758
C            1.25459555689380        0.39463376676113        0.03914563519742
C            0.30641884104155        1.48917273813252       -0.00427707167216
O            0.60833440484173        2.67709540084750       -0.02179181549483
N           -0.97099539670908        0.99978940730250       -0.03198738198047
C           -2.06713412735195        1.94921345218914       -0.05759104136732
C           -1.36559445592875       -0.39875911764929        0.00164294200879
O           -2.55287644088792       -0.61303787223247        0.01605535719071
N           -0.41517891149122       -1.35861267021751        0.02649644240195
C           -3.24662167953538       -3.48875896329059       -0.17517180475045
H            3.95088957246329        1.65254206035668        1.03513070681090
H            4.19862098146535        1.48494891908878       -0.71487341489789
H            2.81528446303511        2.42308206043131       -0.09314998567534
H            4.04408769531925       -1.19732520839408        0.09659821097345
H           -1.64653311936266        2.95333609771591       -0.04836115626073
H           -2.66425090039767        1.79115536373605       -0.95494251130710
H           -2.71022989009273        1.79468031861542        0.80906039334075
H           -2.96119693066575       -3.98258429145369        0.72563553503594
H           -2.94591763378296       -3.89923807560470       -1.11549243166848
H           -3.68532355151631       -2.51340189579016       -0.12690834158745
H            1.98716702130536       -2.72403801393741        0.07485319846096
