25
 energy: 39.478733897846 xtb: 6.6.1 (8d0f1dd)
C            3.43649026106602        1.53357452858603        0.07291482361185
N            2.59891398400801        0.36750812228281        0.06221536067145
C            3.00079130460483       -0.89259806239048        0.07516649073418
N            1.93896566564522       -1.72661871303891        0.06035281742854
C            0.79497325892641       -0.95349120099257        0.03025668735409
C            1.23583311187647        0.37845988841523        0.03796167209859
C            0.29231008452138        1.48025584404162       -0.00531186864944
O            0.60683247655582        2.66462414501549       -0.01830808387854
N           -0.98541583670004        0.99905973200672       -0.03928296662955
C           -2.07612599571245        1.95468708127431       -0.06261994909585
C           -1.38060655719680       -0.40408820958713        0.00946382308074
O           -2.56969474840163       -0.60099980065712        0.04503729808035
N           -0.44033421237848       -1.36819740966557        0.01968604891202
C           -3.16768199767579       -3.45581280535625       -0.18015610843123
H            3.93169416298137        1.63416260467255        1.03671013340838
H            4.18578380581822        1.45303675318253       -0.70925048261657
H            2.80759255698091        2.40194031230515       -0.10201617500894
H            4.01714683836217       -1.20980187694427        0.09542556289987
H           -1.64148450897476        2.95066998201080       -0.05159679997694
H           -2.67447059905826        1.80672804951853       -0.96037216632268
H           -2.72060799017596        1.80622133374844        0.80385874405955
H           -2.87654765519336       -3.93755041861993        0.72386826718488
H           -2.86176026527970       -3.85720085011140       -1.12070454627380
H           -3.67560421528390       -2.52239352032224       -0.13733404689438
H            2.00623694347425       -2.73640686919374        0.07358398476708
