25
 energy: 41.654249883837 xtb: 6.6.1 (8d0f1dd)
C            3.41919762397652        1.49006595657914        0.06893051589098
N            2.55788270693607        0.32194519568298        0.06898936013490
C            2.95149173312823       -0.94602728019076        0.09732430196533
N            1.87719534424093       -1.77731607513263        0.05878812395094
C            0.73577159558229       -1.00326683138770        0.01863589140778
C            1.19369238710761        0.32836055950409        0.03218263710458
C            0.26062329537442        1.43918468428749       -0.00699666716090
O            0.59642229413496        2.61706647376646       -0.01237418054450
N           -1.02182602293384        0.97339225663572       -0.05574949575184
C           -2.09406346350309        1.95283698694616       -0.06884651873673
C           -1.44005547031077       -0.40350891500544        0.02723547426367
O           -2.63465923503277       -0.55615633577265        0.10280098519840
N           -0.51837410922709       -1.39071314178457        0.01117508978030
C           -2.94996758789858       -3.30830003967718       -0.18450110297642
H            3.90767271115917        1.59815810200500        1.03835518516910
H            4.19323760095531        1.38575588752482       -0.69640163542197
H            2.83056398018509        2.39265859165098       -0.12208135762798
H            3.96718139142452       -1.27239317575153        0.08695982619136
H           -1.60117374561267        2.92089562830957       -0.05044823348411
H           -2.70230268010743        1.84102837169962       -0.96721988663898
H           -2.74424521268761        1.83754571148009        0.80052255407766
H           -2.67277621823956       -3.77711296221765        0.71283888828993
H           -2.65208855971208       -3.68911037967214       -1.12037871108191
H           -3.51523520626390       -2.41436761480822       -0.14043657490937
H            1.93388811200902       -2.79229674362610        0.07898437274479
