25
 energy: 43.259231906426 xtb: 6.6.1 (8d0f1dd)
C            3.38039131944476        1.46444248257842        0.07354506820120
N            2.52791991003658        0.29908622240697        0.08718860658468
C            2.91305730101145       -0.98032614540103        0.10493392211717
N            1.83314227841947       -1.80984207291439        0.05930620852727
C            0.69368196249831       -1.03456121598545        0.01442463561196
C            1.16276221391088        0.29662986079493        0.02620660825875
C            0.24567360372353        1.41005090927101       -0.00945483691300
O            0.59097637304406        2.58602939741276       -0.00746556126695
N           -1.04451180149048        0.96097353135499       -0.05618590108033
C           -2.09604547153795        1.96892975808410       -0.05475875007269
C           -1.48150674128982       -0.40121121489152        0.04035644128520
O           -2.67940096771576       -0.52120112005938        0.13948582984318
N           -0.57216250234417       -1.40706486366799        0.00922422036309
C           -2.79937555513501       -3.21278418243339       -0.17970172440363
H            3.89155534260843        1.55631335929963        1.03042317874422
H            4.12739356062419        1.38486471067603       -0.71657122794589
H            2.78250285537935        2.36444169497439       -0.09291809133499
H            3.92542175179345       -1.32129233242662        0.09855808007267
H           -1.57622564656428        2.92440372500567       -0.04593985882861
H           -2.71336578483484        1.86738628551377       -0.94740061357446
H           -2.74341301579798        1.87006792898073        0.81875996497807
H           -2.50799733718863       -3.67724221894861        0.71598623436722
H           -2.49065964237685       -3.58745893828235       -1.11318160892393
H           -3.41176045898809       -2.34990387165442       -0.13891078460558
H            1.87987679460326       -2.82678518272023        0.08272121009219
