25
 energy: 38.405016234543 xtb: 6.6.1 (8d0f1dd)
C            3.47484227416647        1.58493666311455        0.07409314490261
N            2.64664433672062        0.40752704046166        0.05802943738077
C            3.05399666913254       -0.85344192715959        0.07472944075632
N            1.98629778862165       -1.68027999101301        0.06547474875495
C            0.83750912626337       -0.91398455571323        0.04209251274470
C            1.27847468748640        0.41656722178088        0.03873474588211
C            0.31759989945625        1.49051513648186       -0.00223184796441
O            0.59196925805465        2.68338671622659       -0.02705281543296
N           -0.96512228664255        0.99778522012819       -0.01398401457666
C           -2.06149911223457        1.94833303336311       -0.04951610898831
C           -1.35646663944103       -0.37943609838176       -0.00282443504641
O           -2.54069734813212       -0.62015735318621       -0.01948762890984
N           -0.39532536649571       -1.33555390974587        0.02392969199749
C           -3.30475265716454       -3.53770620321169       -0.16709844837299
H            3.99025700326352        1.67388343597805        1.03146753783840
H            4.21496234493359        1.54130914041850       -0.72466549095889
H            2.82825720302834        2.45215984230286       -0.06528924952965
H            4.07635050745751       -1.17282694660508        0.09053559604143
H           -1.63796953310442        2.94988887275702       -0.03848184056098
H           -2.65541816141741        1.79505173929198       -0.95096372129210
H           -2.70879919935105        1.79627001590535        0.81445845380683
H           -3.08832801041871       -4.06685917772995        0.73559801131392
H           -3.07287859447411       -3.98571588563974       -1.10908815720834
H           -3.60842055965952       -2.51534518413546       -0.12400527918186
H            2.01073067492354       -2.68727805694495        0.07257962879859
