25
 energy: 44.172583418766 xtb: 6.6.1 (8d0f1dd)
C            3.36174800830503        1.44990941666085        0.07363995996749
N            2.51233997584111        0.28211332778509        0.08553096785169
C            2.89317073118619       -1.00078317757916        0.10664282244437
N            1.80874614674083       -1.82670258030587        0.06092471914453
C            0.67011226314217       -1.04941472250133        0.01293607664671
C            1.14660630989492        0.28036825094750        0.02136855276491
C            0.23864503909531        1.39531548776025       -0.01077109830698
O            0.58588563839946        2.57112235207435       -0.00453501056453
N           -1.05472668575573        0.95351478291244       -0.05351786476145
C           -2.09273635395061        1.97091141108742       -0.05077321160799
C           -1.50292127651102       -0.40034846611709        0.04436812025841
O           -2.70194676299531       -0.50387993304273        0.15891492189080
N           -0.60064662527635       -1.41662857065357        0.00845771312144
C           -2.72235365889472       -3.16298249624671       -0.17787052416116
H            3.88373989749573        1.53289338660376        1.02489727134021
H            4.09732510434664        1.38586670809719       -0.72689835875404
H            2.76290209988925        2.35127111980936       -0.07921650673518
H            3.90389397632426       -1.34662640483116        0.10467068028277
H           -1.56564489370121        2.92546335012412       -0.04502251970339
H           -2.71014029327964        1.86749212603329       -0.94310403510003
H           -2.73685209976046        1.87299950942688        0.82490583745697
H           -2.42855223277416       -3.62782770627228        0.71752034298829
H           -2.41310948978931       -3.53573196831245       -1.11070201424815
H           -3.35899269869523       -2.31867817660595       -0.13713639193204
H            1.84996813383818       -2.84374400615240        0.08487486208814
