25
 energy: 38.516804421583 xtb: 6.6.1 (8d0f1dd)
C            3.46549933462642        1.57509085774281        0.07126337980952
N            2.63893466583819        0.39879211055800        0.05697495938920
C            3.04650564864866       -0.86295382695921        0.07476555030480
N            1.97812492711792       -1.69159657159876        0.06684178921027
C            0.83275496994411       -0.92125465699789        0.04391545754610
C            1.27205891502483        0.40991138551546        0.03881754600517
C            0.31845636911623        1.49384626749174       -0.00457659401612
O            0.60376500767910        2.68528226708856       -0.02679001533663
N           -0.96117731730012        0.99849557346701       -0.02095427963097
C           -2.06171361413741        1.94228664547052       -0.05101706768659
C           -1.35700024624045       -0.38831937207576       -0.00096181285246
O           -2.54266792218133       -0.61899809038783       -0.01207340844038
N           -0.39701989911784       -1.34563163460962        0.02833379128521
C           -3.32560778035472       -3.53947165176307       -0.17306998019597
H            3.97165752029487        1.66614227982905        1.03281198618609
H            4.20869146454954        1.51864246408843       -0.72360355516766
H            2.81920230879345        2.44149031901316       -0.07907776412830
H            4.06802966514707       -1.18095855162668        0.09497244430230
H           -1.64966712046878        2.94915576794409       -0.03937371392062
H           -2.65554567991634        1.78484139913301       -0.95140566487650
H           -2.70631395371123        1.78441191711534        0.81403351217652
H           -3.04765636896114       -4.03438118129227        0.72917267060841
H           -3.03375672011680       -3.95294446218455       -1.11378131607090
H           -3.62088987075284       -2.51411774881117       -0.12531937772863
H            2.00482677170123       -2.70135022760000        0.07728444909108
