25
 energy: 4.698521559232 xtb: 6.6.1 (8d0f1dd)
C            3.26007933501889        1.27254322317617        0.08819820989146
N            2.36922822526396        0.14383587578308        0.02711210080084
C            2.71212506368920       -1.19993557339165        0.05006868803727
N            1.55221825697404       -1.93732075573843        0.03290950733062
C            0.46398947849702       -1.14106271229829        0.00150192281819
C            0.96856302543620        0.17954849430355        0.00696749076417
C            0.16076704580266        1.33198901727660       -0.01704233736353
O            0.49676259564896        2.52064848148124       -0.03615190346645
N           -1.21641289930290        0.97279363227641       -0.02739717383823
C           -2.17883431537888        2.07142451092890       -0.04822697741375
C           -1.73507079409852       -0.27883271636851       -0.02566168299699
O           -2.94304583613259       -0.41173565136950       -0.01669097000078
N           -0.90924361847107       -1.43743326668232       -0.03065321760683
C           -1.76705700156279       -2.67920540059091       -0.09106092864685
H            3.77391511929323        1.31610786266087        1.05627343722010
H            4.02364498996124        1.20627654650927       -0.69525307908861
H            2.67900790322770        2.19502637340620       -0.03954540386499
H            3.70359285371152       -1.59245610225660        0.06282288158454
H           -1.61551997351506        3.00495824702915       -0.03029139687199
H           -2.78429446200150        2.01458633654382       -0.95146513683269
H           -2.82780332850830        2.00909214860699        0.82267150178353
H           -1.60491596407753       -3.31559407791885        0.78365089403112
H           -1.58607580478656       -3.26253546037627       -0.99444647583111
H           -2.78593797238089       -2.30938595868570       -0.09029662202626
H            1.54190094600531       -2.94068570175307        0.03380248130137
