25
 energy: 0.508218379498 xtb: 6.6.1 (8d0f1dd)
C            3.25917750630966        1.25181877672401        0.08756275653585
N            2.35683347510477        0.13531265904771        0.02873480043989
C            2.69146424361989       -1.21004500839204        0.04472049792168
N            1.52633098955005       -1.93731521708202        0.02710049314546
C            0.45295793133132       -1.12256020973353        0.00142139009954
C            0.95867790906540        0.19121299161134        0.01008406346133
C            0.14873164011411        1.34397623879639       -0.01275650369721
O            0.48731109084441        2.53212412280066       -0.02801800012601
N           -1.23119318034235        0.98668773455106       -0.02785151015890
C           -2.19073624309965        2.08561181146167       -0.04878780554676
C           -1.75313819319477       -0.26422567879333       -0.03105781478450
O           -2.95890655213594       -0.41883329340257       -0.03323791748624
N           -0.91087677262695       -1.40849420905197       -0.02917143863206
C           -1.70545010909675       -2.66948624750570       -0.08338188532638
H            3.76483103278189        1.29649342193972        1.05926055744244
H            4.02524805969595        1.17120421246190       -0.69110781305556
H            2.68821187290055        2.17702468872585       -0.05219719289737
H            3.67930546557964       -1.61053240900455        0.05867416616931
H           -1.62640313832033        3.01903636544612       -0.02825997189685
H           -2.79560842029638        2.02863373807604       -0.95295880899787
H           -2.84291062482096        2.01797151504885        0.82013366516128
H           -1.52007521347287       -3.29491254740316        0.79456675453835
H           -1.49622440209560       -3.24373215120511       -0.98645787591712
H           -2.74071919302341       -2.35146087997167       -0.08649854071067
H            1.50629127525420       -2.94060854205267        0.02529922007707
