25
 energy: 46.110479289112 xtb: 6.6.1 (8d0f1dd)
C            3.32147021453079        1.42067804783978        0.07239613826932
N            2.48033889489042        0.24668625217466        0.07352224766670
C            2.85528322749398       -1.04141779261029        0.10236166568464
N            1.76161385091387       -1.85950004010366        0.06218740863103
C            0.62414149559127       -1.08103535353793        0.01092258201785
C            1.11251137861490        0.24642992589569        0.01400575843390
C            0.22389800637972        1.36682821144561       -0.01628943168930
O            0.57389405879726        2.54263840348860       -0.01519026901597
N           -1.08112806440914        0.94590536319998       -0.04329447917204
C           -2.09282515195251        1.99308141987478       -0.04960968302275
C           -1.54746924742466       -0.38812142103689        0.04274239067089
O           -2.75107980780283       -0.46903783393121        0.15806125485295
N           -0.65973811235372       -1.43143022274706        0.00713025902151
C           -2.56442980916238       -3.07232972348537       -0.16904968593373
H            3.86223434444398        1.48699883005852        1.01404427479588
H            4.03369808265312        1.38973869465063       -0.74888595043205
H            2.71665791416499        2.32217773927320       -0.05236919767547
H            3.86350094823967       -1.39529449987685        0.11241734531322
H           -1.53004539346018        2.92614746847271       -0.04371835686639
H           -2.70999453983339        1.90625160042689       -0.94406612860026
H           -2.74041068623369        1.91281179732765        0.82440256676464
H           -2.26657098879372       -3.53729331551033        0.72712335980769
H           -2.25107985892905       -3.44060137719566       -1.10147034441932
H           -3.24250048382778       -2.26219363353922       -0.12889059863035
H            1.80766366225762       -2.87324901024071        0.08500259202409
