25
 energy: 46.923136104787 xtb: 6.6.1 (8d0f1dd)
C            3.30201952669611        1.40780037197281        0.07132663004762
N            2.46518233324880        0.23107158393048        0.06545545328920
C            2.83658111979621       -1.06071240900770        0.09911326401045
N            1.73669718944696       -1.87468625902740        0.06224657906964
C            0.60153835391190       -1.09489104778998        0.01002990831578
C            1.09525140153045        0.23110258953957        0.01075519676897
C            0.21819860746238        1.35523829138021       -0.01949614334024
O            0.56833789298298        2.53139343220390       -0.02444380080310
N           -1.09448901776883        0.94741204048475       -0.03484086095084
C           -2.09551093325932        2.00628844518314       -0.04808821794949
C           -1.57079482023377       -0.37767412894496        0.03985897941183
O           -2.77745311262690       -0.45063598860984        0.14480461011869
N           -0.69143749488851       -1.43515053022808        0.00551159904342
C           -2.47925745700106       -3.02725809709909       -0.16301799664232
H            3.84671695594035        1.47052120962558        1.01074964874656
H            4.00544581656966        1.40314949593668       -0.75779875291823
H            2.69272275783734        2.30761628546313       -0.03961362758041
H            3.84638017717393       -1.40690897379669        0.10487691299758
H           -1.52700659911685        2.93686382822349       -0.04058454107236
H           -2.71041831633632        1.92375528394081       -0.94436039706128
H           -2.74332936171534        1.93117005444184        0.82520568701006
H           -2.18444199220583       -3.49701337973532        0.73255277903329
H           -2.16974493908684       -3.39787483121352       -1.09615482725457
H           -3.18289785408727       -2.23893511519453       -0.12385323713634
H            1.77651331515852       -2.88707871026977        0.08381519670364
