  72
        -99.33132534
 N         -1.6204518609        3.0414130977        2.4599316822
 C         -1.7852205926        2.4233481979        1.3880557887
 C         -3.1117527359        2.3576305920        0.6634400679
 C         -3.4833645094        0.8778185531        0.4985179011
 C         -4.3488086067        0.4965148816       -0.5239945873
 C         -4.7364895836       -0.8254555639       -0.6770278606
 O         -5.5657703898       -1.2898145493       -1.6302922207
 C         -6.1395364710       -0.3861902627       -2.5464606916
 C         -4.2415674957       -1.8082048502        0.2253591884
 O         -4.6660479675       -3.0662063415        0.0000951094
 C         -4.2791289622       -4.0920637541        0.8843130239
 C         -3.3831989367       -1.4124631522        1.2412962109
 C         -3.0074274655       -0.0829133113        1.3762047488
 C         -2.8630900952        2.9461911112       -0.6673237563
 C         -1.4456705450        0.0732974368       -2.2169819036
 C         -0.2767613934        0.3070606489       -1.6077948465
 N          0.3641169667       -0.5268113748       -0.7418763673
 C          1.7295650548       -0.2582204479       -0.3792725651
 C          2.7361366925       -0.7696000326       -1.4348232311
 C          4.1444700979       -0.4935706312       -1.0003541961
 C          4.7113164422        0.7594787777       -1.1948187555
 C          6.0059543890        1.0275471155       -0.7824713264
 C          6.7694610999        0.0447543911       -0.1647413882
 O          8.0347453300        0.1868620237        0.2629001636
 C          8.7032799692        1.4090861990        0.0513454419
 C          6.1961767919       -1.2428001262        0.0444932561
 O          7.0051361173       -2.1369983468        0.6407728564
 C          6.5491538325       -3.4525322095        0.8519014371
 C          4.8943582362       -1.4829706311       -0.3703792923
 C         -0.1594281754       -1.8487702470       -0.5156750226
 C         -4.2869032734        3.0862582917        1.3765256531
 C         -4.6220239116        2.4666048474        2.7282148786
 C         -4.0001411702        4.5761822878        1.5403244585
 H         -4.7219535271        1.2481255032       -1.1991573726
 H         -6.7630704050        0.3554662924       -2.0389698797
 H         -6.7618299392       -0.9916974082       -3.2021081731
 H         -5.3743518723        0.1223522183       -3.1403309306
 H         -4.6130166687       -3.8878860409        1.9056937154
 H         -4.7682024224       -4.9924506563        0.5183799202
 H         -3.1946654129       -4.2405637492        0.8771434223
 H         -3.0106895431       -2.1344946960        1.9502223732
 H         -2.3568816418        0.1973139848        2.1896682072
 H         -3.6316679396        3.4837489109       -1.1888938046
 H         -1.9019340032        2.8520920962       -1.1341700301
 H         -1.9989793176       -0.8395745017       -2.1050677431
 H         -1.8752251137        0.8148025414       -2.8640606323
 H         -0.9900229535        1.8915392484        0.8440479172
 H          0.2370763545        1.2452154780       -1.7716697864
 H          1.9418839097       -0.7361124154        0.5808318614
 H          1.8626067376        0.8202299884       -0.2583470168
 H          2.5305394115       -0.2657952969       -2.3811754257
 H          2.5885085173       -1.8408539175       -1.5760268224
 H          4.1450536634        1.5363366829       -1.6854684206
 H          6.4191231163        2.0084395358       -0.9520760540
 H          8.2220667929        2.2280659355        0.5940598112
 H          8.7559263370        1.6569342740       -1.0126289766
 H          9.7095455125        1.2624220290        0.4382235120
 H          7.3814461921       -3.9797238532        1.3143370960
 H          5.6875645805       -3.4751192762        1.5263922204
 H          6.2893916431       -3.9424852836       -0.0914942925
 H          4.4537518990       -2.4561645224       -0.2204785895
 H         -0.1620073053       -2.4444694552       -1.4335247979
 H         -1.1850355249       -1.7758679914       -0.1478985001
 H          0.4454040957       -2.3564613931        0.2315467867
 H         -5.1565722910        2.9683529375        0.7187098377
 H         -3.7695514456        2.5463317481        3.3962539401
 H         -4.8992098384        1.4199909013        2.6267188233
 H         -5.4579149519        2.9997701849        3.1735433922
 H         -3.1977008229        4.7235628544        2.2569539413
 H         -3.7080899825        5.0282526402        0.5952508605
 H         -4.8895080059        5.0827197233        1.9058440572
 H         -0.6886969948        3.0654666311        2.8612418619
