72
 energy: 14.423672512981 xtb: 6.6.1 (8d0f1dd)
N           -1.53595496208440        2.85908227827545        2.25449657918907
C           -1.57499525079774        2.16347141346647        1.20625829000636
C           -2.75670996420590        2.05661608510027        0.26942324110004
C           -3.34211080742297        0.63504980411324        0.29114146870075
C           -4.24092905851948        0.16880823288698       -0.68701577974643
C           -4.80083318749872       -1.11508068177187       -0.77411631099108
O           -5.56437584064085       -1.58688164445479       -1.94196755455940
C           -6.50830185866506       -0.73497364283173       -2.61398966605451
C           -4.42003892023236       -1.96146525641356        0.33337508101662
O           -4.94893587752311       -3.21187927055323        0.42364443288979
C           -4.62234626358191       -4.07411193743587        1.48254138560307
C           -3.52795493481801       -1.49578912362947        1.32392070190173
C           -2.96242766726241       -0.22966223403056        1.30531033492720
C           -2.17708744415666        2.32094472052952       -1.14645813430354
C           -1.24265158817306        1.20911527055556       -1.65995078579890
C            0.03157224926401        1.15025970848932       -0.88887533950704
N            0.64441052588042       -0.04313076591163       -0.52122408316360
C            2.01841237947579       -0.04619669677567       -0.13748150279449
C            2.95021790103785       -0.53890078985061       -1.26700629926908
C            4.37754112830700       -0.43804247805299       -0.83599006083777
C            5.09357114649717        0.72911532123368       -1.02465266914563
C            6.40552425624027        0.83585421975862       -0.58828058745946
C            7.02057928996164       -0.22535440715741        0.05193334228782
O            8.30306020928844       -0.23442745534140        0.51536635169840
C            9.09456852839802        0.90683990972955        0.31327252300037
C            6.29449646733504       -1.41895255834501        0.26177048858045
O            6.98097997704827       -2.41156605420633        0.89699712600309
C            6.34250656943366       -3.64506818867149        1.10054561962743
C            4.98595594533848       -1.50446628969935       -0.17503401093466
C           -0.04587885920073       -1.29856031563915       -0.59439627866587
C           -3.89439563271069        3.06381191686877        0.59381456904677
C           -4.51273252859607        2.77785800647899        1.95997923446760
C           -3.44391134288456        4.52407060913284        0.53657787474717
H           -4.54637166769578        0.90059760171224       -1.41554220498761
H           -6.48618729457276        0.11198595825382       -2.01645743288495
H           -7.53300161664528       -1.11631800602759       -2.77996759512863
H           -6.07934049232284       -0.38040883337976       -3.54823359358810
H           -4.86750221777958       -3.65558564719732        2.46749987148033
H           -5.23251206986517       -4.96112059163577        1.30393737873205
H           -3.56457573467935       -4.35812947729866        1.46541903785771
H           -3.19154989615429       -2.13714431916880        2.13980036483601
H           -2.24359630836587        0.07209189322022        2.06561642894368
H           -3.00707532721121        2.43369321028755       -1.84455693386987
H           -1.62094522660636        3.25957480280350       -1.13895398412515
H           -1.77226606028492        0.25625999705198       -1.61892906774480
H           -1.04019775749399        1.42362326999985       -2.72204446541207
H           -0.69712406706963        1.64381544450884        0.76868152308366
H            0.69372373954701        1.99656608521804       -0.97387697346763
H            2.14403184821390       -0.68355428257947        0.74280145475124
H            2.31056643345989        0.96797057481335        0.14233880401956
H            2.77174645056411        0.08282488285613       -2.14465170073564
H            2.69536720968456       -1.57017189296504       -1.51114488814646
H            4.63227229842434        1.56793435404563       -1.52425016945997
H            6.93989945638266        1.75589873146761       -0.76325665462890
H            8.67871614946357        1.78155296647371        0.82401455875362
H            9.21956953094216        1.13224790957162       -0.75191352380581
H           10.06576965849048        0.66815395323013        0.74439501766057
H            7.08316375872983       -4.27960664203294        1.58520897474821
H            5.46944935567295       -3.54660834161768        1.75526904586182
H            6.03591524387042       -4.10554592756087        0.15451410108673
H            4.42056144329093       -2.41129300589696       -0.02534355863074
H           -0.20796674797353       -1.62041258096882       -1.62723425315724
H           -1.01729210825128       -1.22542014399408       -0.09678831230479
H            0.54818553417397       -2.06119393098627       -0.09425012196325
H           -4.66704021671852        2.91548100190973       -0.17032646502760
H           -3.77399045339398        2.94487936821895        2.73724309694088
H           -4.86298898360266        1.74997362703020        2.01750585334171
H           -5.35785885675086        3.44186710790666        2.13007424232750
H           -2.64938142551352        4.69923881930352        1.25377546349084
H           -3.09550783017402        4.80012741500477       -0.45527600188678
H           -4.28231034771507        5.17013150217565        0.79000463483622
H           -0.64999087793491        2.86758591973503        2.75691133038744
