72
 energy: 112.297400201094 xtb: 6.6.1 (8d0f1dd)
N           -1.64720209139704        3.10534869456341        2.27326539740465
C           -1.63394338163522        2.25474705671920        1.35227132301325
C           -2.73600762525209        2.08583542635144        0.36008559679961
C           -3.24306328561145        0.66470065064467        0.41555586978317
C           -4.06487794450933        0.14861293208370       -0.59234675985216
C           -4.52704776752522       -1.12741223058613       -0.47425570617876
O           -7.23103341549821       -2.16744371177838       -2.94165609415348
C           -7.05559499511669       -0.90156118529750       -3.27581405366643
C           -4.23753546375683       -1.97736187238957        0.58582875038427
O           -4.80165844874052       -3.21672180602046        0.60125367537446
C           -4.52305031707364       -4.00450527757195        1.70642933709563
C           -3.42583773557114       -1.46069525139973        1.57225849863899
C           -2.95156218081032       -0.17098206733410        1.46736433820958
C           -2.11226492859946        2.37974156862430       -1.03497076426607
C           -1.18407889765758        1.27651065438526       -1.58629138768154
C            0.13311084377627        1.14836887189136       -0.91595790901348
N            0.65381503263850        0.00623456637015       -0.41545638267933
C            2.05121656022785       -0.04659470700547       -0.05962608292908
C            2.96747768564259       -0.51678692394933       -1.21239720734569
C            4.41018408212676       -0.43905891050286       -0.80130526661626
C            5.12712156015915        0.73058509790130       -0.96395806753903
C            6.45007373628604        0.81790176498422       -0.55195954542903
C            7.07762094049797       -0.26802869476696        0.03134675872823
O            8.36700163915860       -0.29801105363684        0.46309581795283
C            9.15997659720273        0.84953072629862        0.29057662277030
C            6.35098065411927       -1.46882020169829        0.20899041366089
O            7.04604183414349       -2.48321908337698        0.79052083527325
C            6.41161137393811       -3.72519466245918        0.95962085717046
C            5.03158005706497       -1.53380895408779       -0.20283588304858
C           -0.04159788395937       -1.25513121450645       -0.53203540089822
C           -3.94593796293904        3.03000109461957        0.62292877814886
C           -4.55643220325912        2.77783419836777        2.00074391613884
C           -3.57184687412289        4.51034914501453        0.49937257677955
H           -4.36952667521702        0.75493406142870       -1.46051227811597
H           -6.13417591343014       -0.81108218835759       -2.52560630428166
H           -7.84012196097682       -0.24747859726113       -2.89208851205860
H           -6.94148704281688       -0.90956899327945       -4.34488122348071
H           -4.84332717815438       -3.49131416644516        2.62783713942666
H           -5.08407407124493       -4.92943528896097        1.55053017144048
H           -3.45141536019827       -4.23187505436863        1.76306831646340
H           -3.16511438329386       -2.06683928114904        2.40816776013493
H           -2.34358309361718        0.18616509789349        2.26107152720200
H           -2.91568305677817        2.55312954559792       -1.75017858661700
H           -1.53808929670306        3.30374295859005       -0.96913140123936
H           -1.71972617953997        0.32845380634375       -1.58098808325841
H           -1.00034872298390        1.54540126531711       -2.63628454539933
H           -0.76120004832798        1.62032259165833        1.13345273112315
H            0.78094422298361        2.01031874330409       -0.88314395263869
H            2.17459593689651       -0.72283765798911        0.78964702506124
H            2.36144187410481        0.95381084666624        0.24127280399109
H            2.79554336660021        0.12846081951404       -2.07464410936791
H            2.71031863904824       -1.54020573440844       -1.48282985645860
H            4.65974816723991        1.58860350221321       -1.42393633054206
H            6.98166578084397        1.74465018348668       -0.69648900793355
H            8.75576341683504        1.70472354084889        0.84141517024985
H            9.27087604997290        1.11185152012044       -0.76791744299364
H           10.13733066029918        0.59538093794578        0.69699642347276
H            7.16310971139867       -4.38057186269920        1.39726061837461
H            5.55736811218691       -3.65306049404314        1.64227693508892
H            6.08086728308505       -4.14351899404753        0.00201997681693
H            4.46916920834418       -2.44615905363643       -0.07725088361382
H           -0.16008231110591       -1.55602865229481       -1.57489893898250
H           -1.02928519084724       -1.18101836357424       -0.07144817391013
H            0.52650302418228       -2.03219217584474       -0.02445697175067
H           -4.70809529852454        2.79835312158367       -0.13221794588281
H           -3.83995668199127        3.04307639091623        2.77271818039822
H           -4.83267551998636        1.73350878807408        2.11661786878843
H           -5.44936635848725        3.38578768528396        2.12351928233617
H           -2.77978559770690        4.75692705528099        1.19957766474029
H           -3.24573424329872        4.76766776460793       -0.50518554604796
H           -4.43781646633792        5.12173225207128        0.73949552625349
H           -0.79285774716444        3.14276361123451        2.82890279930893
