72
 energy: 109.948345849995 xtb: 6.6.1 (8d0f1dd)
N           -1.62780458017407        3.03478318820042        2.28524289636840
C           -1.62279079794267        2.23309730211533        1.31943441616010
C           -2.75069374744844        2.06687189867795        0.33695995208343
C           -3.29539449870287        0.64709002017577        0.36524878448265
C           -4.15150834334916        0.12632887628047       -0.63600937695789
C           -4.66301184533137       -1.13377756818409       -0.51624270719976
O           -6.77620896320985       -1.96637026632184       -2.44130877688028
C           -6.89179564471547       -0.80782990611204       -3.12558281726411
C           -4.32344700724988       -1.98124570724717        0.53372440180649
O           -4.84939692702901       -3.22979619890947        0.56336920741844
C           -4.54749254300978       -4.02968387011904        1.65422461452147
C           -3.48498202334858       -1.46970146056613        1.50509407172916
C           -3.00284122788060       -0.18366458503136        1.41725002753501
C           -2.13162205210510        2.36311594488014       -1.05953370260384
C           -1.19772628727094        1.25890812762494       -1.59848596828625
C            0.11249827072063        1.14973236085998       -0.89124988042784
N            0.64794614499238        0.00147612649801       -0.41516758158820
C            2.04786699958045       -0.04699580957080       -0.07766111273538
C            2.96379554135304       -0.52198822362910       -1.22876708680245
C            4.40404517675904       -0.43939157055565       -0.81219156010140
C            5.12070423293048        0.72943386733828       -0.98085098475845
C            6.44053246868876        0.82254165686975       -0.56175139976173
C            7.06470833536552       -0.25736847410541        0.03702229755582
O            8.35158708261529       -0.28176807950063        0.47850225927207
C            9.14409130897344        0.86413897754584        0.29687928346328
C            6.33804585941232       -1.45667536773349        0.22262670806765
O            7.03038877387694       -2.46555323106156        0.81850111041026
C            6.39424397758466       -3.70555976872065        0.99497296789296
C            5.02094262221061       -1.52653899812838       -0.19635472464749
C           -0.04400108281662       -1.26293468479251       -0.54055442050061
C           -3.93791370684461        3.03810797394570        0.61750587918306
C           -4.54657820239107        2.77953693492630        1.99307051582278
C           -3.54020742466848        4.51382661970294        0.51029913177273
H           -4.35817775569463        0.75049871995179       -1.52621151332580
H           -5.98712706780323       -0.36286649286766       -2.73991891274670
H           -7.81546498547328       -0.36364490286271       -2.78056360904293
H           -6.82477166398866       -0.93569484296953       -4.18170117653601
H           -4.84364318886075       -3.53985166823015        2.59480323553480
H           -5.12198975477914       -4.94356518283814        1.49123167280827
H           -3.47766727536893       -4.27100782810475        1.68911097753198
H           -3.21501640825110       -2.08322249235841        2.32998766770149
H           -2.39693945630195        0.17736800663704        2.21348376432357
H           -2.94408880962661        2.52143418997484       -1.76843596191975
H           -1.56166405258783        3.29191005335559       -1.01108060589122
H           -1.72736197905466        0.30694102581604       -1.58883736208902
H           -1.01858635122655        1.51729927722752       -2.65404631272014
H           -0.73058244081523        1.64506636223835        1.04557053815778
H            0.77881090496927        1.99743965984446       -0.92137205075396
H            2.18270311636985       -0.71525638479831        0.77503070719605
H            2.35241943920163        0.95655295319882        0.21744552070191
H            2.79282145137872        0.11787016557865       -2.09487283836216
H            2.70960788743493       -1.54729409123598       -1.49391642381138
H            4.65405066881772        1.58278502205841       -1.44966641581121
H            6.97125445564427        1.74876747625607       -0.71294625899156
H            8.73647290798680        1.72423730688750        0.83721345625880
H            9.25756696106936        1.11672810636588       -0.76351753393339
H           10.12076596704920        0.61521712025980        0.70866976983322
H            7.14189294696877       -4.35720875674365        1.44457191461422
H            5.53489128533037       -3.62631599788865        1.67014635032634
H            6.06956922617156       -4.13347733067291        0.03966409500161
H            4.45712572996408       -2.43707957465592       -0.06445998896047
H           -0.17499587904122       -1.56680151859534       -1.58066128337493
H           -1.02717752702060       -1.18518009851971       -0.07110734071266
H            0.52723767213146       -2.04285858400089       -0.03958585370782
H           -4.70009532431206        2.82778399313835       -0.14045792453808
H           -3.82279691484502        3.01916675763929        2.76573430883310
H           -4.84246845006004        1.73889549139975        2.09305697024239
H           -5.42774453815805        3.40221898262511        2.12861643333390
H           -2.74686367511819        4.74333569647515        1.21485600625355
H           -3.20889997079703        4.77590313958380       -0.49137656872153
H           -4.39866582981771        5.13547789343904        0.75346994922310
H           -0.75573042753863        3.07592133012350        2.81016134031932
