72
 energy: 56.757644692552 xtb: 6.6.1 (8d0f1dd)
N           -1.58476296245439        2.94479717033941        2.27405241060403
C           -1.60050983726956        2.18705680146483        1.26539109623321
C           -2.76516885906560        2.05176315769598        0.29945793012855
C           -3.35151886147262        0.62372449614662        0.29567640971759
C           -4.23443908108896        0.11540362273956       -0.71389134148427
C           -4.87196959442683       -1.14086227865660       -0.73525301426904
O           -5.98528949344183       -1.65035344447761       -1.90953577258777
C           -6.65259095725158       -0.74173280980462       -2.82167707995573
C           -4.44945636055630       -1.96649985599126        0.39561131430162
O           -4.89206725164592       -3.24235870684178        0.47255337023243
C           -4.58210931369675       -4.05428179240636        1.56728212553287
C           -3.57621678904325       -1.47136019873601        1.37126394218282
C           -3.03157578456158       -0.20225508478656        1.34615607997474
C           -2.15869623862713        2.34019338665052       -1.10315805256874
C           -1.21996901067426        1.23808763468539       -1.63641953628439
C            0.07152327135881        1.16465465795739       -0.88845418150036
N            0.64910300373545       -0.02341952988701       -0.46135723988979
C            2.03439258182384       -0.05056386906178       -0.11076079950363
C            2.96224961862557       -0.53290792993859       -1.25170275638399
C            4.39316397867340       -0.44060767165860       -0.82925008161176
C            5.10925744373116        0.72858870762348       -1.00476301472554
C            6.42380007482339        0.82936256857963       -0.57480163187059
C            7.04306805645446       -0.24164925190346        0.04518624947674
O            8.32954200637891       -0.25798403687224        0.50026986790552
C            9.11968673756158        0.88528083400489        0.30575517420826
C            6.31718761606715       -1.43738621372869        0.24262465967967
O            7.00739641817594       -2.43962645405430        0.85999753255620
C            6.36868649098966       -3.67538419976355        1.04795793301789
C            5.00499100068749       -1.51566107816901       -0.18657649415934
C           -0.04320922829210       -1.28093006651195       -0.56809267045263
C           -3.91844749913014        3.05008677459901        0.60692273243672
C           -4.53068021914892        2.77968556062788        1.97775633230941
C           -3.49227350317160        4.51874376907182        0.52415372086238
H           -4.45160879888379        0.84239550589648       -1.48738301128378
H           -6.03109266238822        0.10164126845310       -2.60340456374121
H           -7.75965522845976       -0.84360557555363       -2.68144914889428
H           -6.52582502470581       -0.64760787083007       -3.89971970315356
H           -4.85388309506910       -3.59700865835976        2.52932748930464
H           -5.17578521858907       -4.95535356963452        1.40017996216515
H           -3.51892602475814       -4.31867820092918        1.57996846383247
H           -3.29108533136629       -2.09188708591786        2.19982149185461
H           -2.34088257296324        0.11439090565149        2.12714514220762
H           -2.98233578306215        2.48100525348789       -1.80451106328373
H           -1.59306037852607        3.27295670354328       -1.07295164674862
H           -1.74252516341037        0.28057310431656       -1.60919764987167
H           -1.04741336498483        1.47633344705694       -2.70074888113985
H           -0.71311638127842        1.64118131547419        0.90553466244535
H            0.75064156416268        1.99595819766504       -0.98227855529300
H            2.16763756464994       -0.70073195498120        0.75782774805176
H            2.32955333300729        0.95910052152808        0.17853903320803
H            2.78185735958612        0.10021049947591       -2.12041531826053
H            2.70606879939238       -1.56045215294919       -1.50638314623204
H            4.64338344101661        1.57465499086087       -1.48725403062813
H            6.95560818985594        1.75326496001541       -0.73743393980802
H            8.70723820175644        1.75296890655358        0.83051095064121
H            9.23821890312267        1.12394076405679       -0.75763709507878
H           10.09452321780177        0.64318281282714        0.72670216399943
H            7.11176826466745       -4.32012748215801        1.51531025310596
H            5.50170602050307       -3.58620760560446        1.71215119086149
H            6.05242927310847       -4.11889442033574        0.09672477622592
H            4.43910169613172       -2.42359488785899       -0.04533597078665
H           -0.18977371756690       -1.59602870923032       -1.60527727751561
H           -1.02216468111553       -1.20574120298803       -0.08604772722045
H            0.53481872071619       -2.05772519807007       -0.06717407775951
H           -4.68606999765956        2.87298297545208       -0.15550358489218
H           -3.79598944375428        2.98337070068951        2.75019866853277
H           -4.85379094586406        1.74463757702753        2.05645350610382
H           -5.39362969850278        3.42417808273790        2.13234502681216
H           -2.69793281174313        4.71911285056092        1.23498262727232
H           -3.15178322643168        4.78700991851519       -0.47267690431398
H           -4.34046354286031        5.15437089971405        0.77207368713674
H           -0.70135093121719        2.97074568613185        2.77984479223549
