72
 energy: 41.699483894147 xtb: 6.6.1 (8d0f1dd)
N           -1.56778320320673        2.91626900151020        2.26646095420003
C           -1.59251918941883        2.17555595911385        1.24626546689403
C           -2.76303608522117        2.05213387771871        0.28819901689992
C           -3.34932984993796        0.62169701214845        0.28394833460364
C           -4.21577854424093        0.11710172907040       -0.73850847482631
C           -4.83986252300480       -1.14820537218896       -0.79389018461267
O           -5.80926615773617       -1.65267266502884       -1.94458700920514
C           -6.64856957806462       -0.74878930032042       -2.74772384635061
C           -4.44902689231399       -1.96452736734455        0.36420600265762
O           -4.91572384455063       -3.23371182654400        0.45461365083903
C           -4.59595338566637       -4.06031772916774        1.53835401867934
C           -3.57641050203438       -1.47605660338379        1.34609777330773
C           -3.01225919255250       -0.21140889124918        1.32902397557993
C           -2.16491491981667        2.33360436581740       -1.11806079488267
C           -1.22740607302421        1.22951860326721       -1.64739242357384
C            0.05774722953295        1.16365011521349       -0.88951567362424
N            0.64766716480399       -0.02974111103006       -0.48178229572080
C            2.02920830271830       -0.05022044839611       -0.12038627869918
C            2.95873394801449       -0.53576021640038       -1.25775582273692
C            4.38841966492169       -0.44026533631354       -0.83305477091477
C            5.10435928590135        0.72849702617252       -1.01206076644764
C            6.41775620355516        0.83151011106664       -0.57919936024858
C            7.03571961140295       -0.23623458402658        0.04768515983696
O            8.32084359344806       -0.24997401543707        0.50614738663671
C            9.11139604135453        0.89247211693243        0.30851777668757
C            6.30984884111288       -1.43120300315008        0.24913392202798
O            6.99880473577057       -2.43027081834092        0.87297940722900
C            6.35999126636886       -3.66527181767074        1.06559206934005
C            4.99891942898516       -1.51190916256007       -0.18305635753022
C           -0.04407361808010       -1.28687173038205       -0.57674928326799
C           -3.91069290097181        3.05421269267023        0.60243246082980
C           -4.52482050982604        2.77922007434427        1.97182824466504
C           -3.47636507511693        4.52035177290713        0.52841416587457
H           -4.47658931191744        0.86365380336179       -1.47257159166108
H           -6.18590166880867        0.14134952050231       -2.40078962921598
H           -7.74851830924859       -0.98949377768323       -2.69454194863435
H           -6.38457243234400       -0.55159210649257       -3.79170506644525
H           -4.85801413756704       -3.61618332137727        2.50860215530781
H           -5.19453394534838       -4.95738683594000        1.36804678425471
H           -3.53421018001729       -4.33140078573935        1.54097362717022
H           -3.26617335134361       -2.10315906611977        2.17371361078247
H           -2.31184954524797        0.10003197231583        2.10620285965929
H           -2.99162180900801        2.46562782979125       -1.81734560454651
H           -1.60213346698272        3.26793579442568       -1.09476434805684
H           -1.75145833601326        0.27280938247194       -1.61426634802762
H           -1.04862535996684        1.45864028864607       -2.71298128086554
H           -0.70806619218669        1.63952783252107        0.85969957960421
H            0.73124464422897        1.99906097399429       -0.98358729090347
H            2.15971962221466       -0.69556381073156        0.75257947291050
H            2.32256121819419        0.96104538520635        0.16644420688544
H            2.77782076147951        0.09418995851870       -2.12859835182309
H            2.70323329136164       -1.56442528044180       -1.50894881314180
H            4.63966758357505        1.57228200441202       -1.49975633223365
H            6.95024188214561        1.75430539300723       -0.74587956212187
H            8.69763460801931        1.76252187737195        0.82841221651937
H            9.23192688329648        1.12656896436285       -0.75561159557887
H           10.08517297582829        0.65176799691193        0.73276617131182
H            7.10207074130304       -4.30692742736958        1.53874648512965
H            5.49079422743550       -3.57292361127747        1.72640293456390
H            6.04682648250302       -4.11419598679174        0.11592991809607
H            4.43304051858620       -2.41931026852927       -0.03873651137631
H           -0.19575481788639       -1.60510904196678       -1.61220805999227
H           -1.02062308893788       -1.21244250194074       -0.08954410751349
H            0.53954426466568       -2.05919797086692       -0.07629932428676
H           -4.68048300739030        2.88728764589194       -0.16060845809032
H           -3.78807499111058        2.97105687381132        2.74534668612790
H           -4.85673747681465        1.74633103908049        2.04363586613151
H           -5.38180404208329        3.43055456203269        2.13222519958623
H           -2.68188784304635        4.71157161766969        1.24140936651702
H           -3.13290707902613        4.79111385516771       -0.46669157920333
H           -4.32107266183501        5.16008562147091        0.77820175541325
H           -0.68404026116200        2.93616160194947        2.77207512376220
