72
 energy: 100.072775881584 xtb: 6.6.1 (8d0f1dd)
N           -1.61670758927026        2.99945418033099        2.28727615297219
C           -1.61582783413739        2.22204079638351        1.30095131840912
C           -2.75788846525370        2.05868196746356        0.32483078976504
C           -3.31907813305634        0.63642862115536        0.34231174097325
C           -4.19994733962760        0.11989714720325       -0.65300379226068
C           -4.75417321724719       -1.13472247483217       -0.56880373618281
O           -6.48416528144528       -1.81816670484931       -2.23813900488000
C           -6.79208530398059       -0.75313508862815       -3.03455861710475
C           -4.37496715807699       -1.97773993905133        0.49178724596137
O           -4.86487797954215       -3.23807598775302        0.53307236075292
C           -4.55878223878575       -4.03964959689163        1.62574365293259
C           -3.52005675404368       -1.47221686745582        1.46057246793868
C           -3.01818265261746       -0.19194445309252        1.39359421991903
C           -2.14102415455037        2.35501869831207       -1.07248319155883
C           -1.20452726382149        1.25203043442715       -1.60766980160062
C            0.10089171405755        1.15410252209041       -0.88146842127029
N            0.65078093656955       -0.00590897853789       -0.43434870731875
C            2.04549882838539       -0.04820657417915       -0.08883902093220
C            2.96350598844751       -0.52563105293206       -1.23656188065122
C            4.40130799700364       -0.43990614059568       -0.81792329149897
C            5.11732308105967        0.72886110375146       -0.98915401193282
C            6.43544810270291        0.82476017746895       -0.56629296642449
C            7.05792814582295       -0.25211495307981        0.03984887125584
O            8.34405840868067       -0.27372308838735        0.48603845090131
C            9.13603490219858        0.87130567763384        0.29977724934664
C            6.33149736652649       -1.45045735000849        0.22948389491108
O            7.02271668331026       -2.45680630039246        0.83254807238203
C            6.38560448383372       -3.69558225186998        1.01271521476070
C            5.01585722923157       -1.52298342266768       -0.19306905388181
C           -0.04344342755182       -1.26891460720323       -0.54999459702183
C           -3.93128718152465        3.04193896873477        0.61494977487240
C           -4.54131759397430        2.77982212075199        1.98855316755703
C           -3.52412453423344        4.51551388403871        0.51508871903414
H           -4.39396583985031        0.78336404121314       -1.50865798340350
H           -5.90688261939567       -0.15342314572683       -2.82637875084879
H           -7.79816172586276       -0.48620048235690       -2.71372842350987
H           -6.80173073980567       -0.81370555085630       -4.10744034396239
H           -4.84625744710375       -3.56069137406735        2.57424983026550
H           -5.13907718084150       -4.94958108969115        1.46217972132230
H           -3.49057383966282       -4.28793531906194        1.65376479705471
H           -3.25257028393372       -2.08724661834095        2.28710873540427
H           -2.37732788328740        0.15047414328428        2.18475277317228
H           -2.95780583604975        2.50725143135086       -1.77826958525189
H           -1.57278563691462        3.28575838981110       -1.03080087900269
H           -1.73083187806680        0.29762868798317       -1.59476485419261
H           -1.02830608429570        1.50404341369119       -2.66635367876034
H           -0.72265613859803        1.64832519940638        0.99833166214045
H            0.77451836931814        1.99417961754315       -0.94228377904999
H            2.17987164129758       -0.71009137003233        0.76883561427342
H            2.34586107463198        0.95737727853460        0.20458685282775
H            2.78991011234703        0.11180932347201       -2.10383822225717
H            2.70912623288509       -1.55167681775821       -1.49846477566107
H            4.65077993475592        1.57978804089119       -1.46234170132615
H            6.96609589234004        1.75045206122778       -0.72111929325712
H            8.72669897117030        1.73387963318209        0.83480394289586
H            9.25105457409158        1.11903151375428       -0.76161807362306
H           10.11222977987892        0.62495220744186        0.71445753848868
H            7.13149627311647       -4.34516858872790        1.46826798685597
H            5.52370664624944       -3.61283581599125        1.68416136116113
H            6.06380017352703       -4.12845269228910        0.05866030490831
H            4.45116699651319       -2.43254512442600       -0.05809967505922
H           -0.17915893962873       -1.57635395424382       -1.58911101974186
H           -1.02529409848087       -1.19193531096885       -0.07715802632349
H            0.52885684692584       -2.04850706408468       -0.04858608559674
H           -4.69487791278934        2.84255417235066       -0.14490088875728
H           -3.81393065460861        3.00761093283050        2.76121222034612
H           -4.84637428175848        1.74105096630939        2.08102324250808
H           -5.41659882742835        3.40971642065115        2.13018167410610
H           -2.73066333572772        4.73622041735745        1.22189952038294
H           -3.18990659192875        4.77984143108226       -0.48505330531490
H           -4.37940623118335        5.14168827324292        0.75951991297614
H           -0.73770689358009        3.04227051573732        2.79990963120878
