72
 energy: 43.814397922763 xtb: 6.6.1 (8d0f1dd)
N           -1.62144340294424        3.13497562692815        2.29072229967815
C           -1.58988309936502        2.28636091623706        1.36783456348966
C           -2.70655363347576        2.09679095754869        0.38654561905414
C           -3.19643543842541        0.65636832651854        0.46273301859753
C           -4.07585290156928        0.12452959134332       -0.49724698182991
C           -4.68139164173908       -1.12825246763225       -0.46527129029417
O           -7.15696005484680       -1.94951847053145       -3.74315594585155
C           -7.47249723570996       -0.78641484451690       -3.87837860735981
C           -4.23857396524236       -1.93467125015802        0.62998225649868
O           -4.72345413196739       -3.20545652139352        0.66661701686813
C           -4.47526826441434       -3.98998098598212        1.79237577254615
C           -3.35650722141946       -1.44369722466822        1.62175636933180
C           -2.87385201957943       -0.15149540631972        1.53723051120046
C           -2.09468306652660        2.39264888525757       -1.00887065263820
C           -1.19169523301612        1.28005622690903       -1.57437880087764
C            0.10706713886546        1.16132468255161       -0.87343605449206
N            0.66656857837656       -0.00927906742977       -0.44037539104360
C            2.04709397135083       -0.04148797440321       -0.05061985427892
C            2.96946264158001       -0.50565903425604       -1.19809242487681
C            4.41197874611871       -0.43613362920002       -0.78933288172318
C            5.12998050007241        0.73608554471395       -0.93481984981146
C            6.45713381540161        0.81606778752152       -0.53957555053968
C            7.09244366569155       -0.28206534527732        0.01424764425070
O            8.39086645493979       -0.32423332866035        0.42791676277672
C            9.18253791630768        0.82627437822131        0.27455931642821
C            6.36832814800509       -1.48611817518537        0.17744616139736
O            7.07461352811204       -2.51408542689356        0.73116872050820
C            6.44829176484890       -3.76201834935655        0.88692424594844
C            5.04473328135821       -1.54292991065895       -0.22018085883526
C           -0.04058849870729       -1.25661491120200       -0.53789100058321
C           -3.93075663772570        3.02329471508495        0.64390664180113
C           -4.54661399066088        2.77070843544071        2.01929680865056
C           -3.60438898133207        4.50359420436707        0.49586108527449
H           -4.32075795018395        0.75167365844762       -1.34616655112802
H           -5.60686188773298       -1.34082368730766       -1.36892502484927
H           -8.23904964039116       -0.30508117364337       -3.24050833531479
H           -7.21267665633981       -0.27669551925232       -4.79627653305095
H           -4.82456337618019       -3.50211412781989        2.70803828061370
H           -5.01587013953351       -4.92154827337963        1.65387504957523
H           -3.40490555762766       -4.19413050343971        1.86948420493769
H           -3.08715088937740       -2.02747230741055        2.49663776790483
H           -2.25343949177761        0.22070159548229        2.33148756498253
H           -2.89555198054854        2.58157696724815       -1.72382605864687
H           -1.50620498195173        3.30621658790927       -0.91436226777217
H           -1.72914139479988        0.33452132054396       -1.57167441075100
H           -1.01111968258055        1.55117461107429       -2.62918135774522
H           -0.72976458234209        1.63447887524971        1.15207062708496
H            0.74808770658394        2.02832565198416       -0.83816490228417
H            2.16555549061472       -0.71754854814881        0.80386087951115
H            2.35969587222290        0.95501895873556        0.27332800770770
H            2.78438734476821        0.14583638552445       -2.05445269873674
H            2.70114558108743       -1.52568462286136       -1.47675891332642
H            4.66161550120048        1.60345678493743       -1.37385128321946
H            6.98650641497062        1.74554834000808       -0.67881086985550
H            8.78218866298861        1.67265068401456        0.84480641112997
H            9.27942118635914        1.11634027501141       -0.77897266838610
H           10.16314715181192        0.55803702073341        0.66840920852819
H            7.21004281310109       -4.42319130106405        1.29987905668182
H            5.60562829162242       -3.70855631706715        1.58603192379709
H            6.10295147047582       -4.16304118655109       -0.07355165517280
H            4.48322225801639       -2.45726074099732       -0.10538244759196
H           -0.17102848210903       -1.56513187548278       -1.57895736115525
H           -1.02576552627761       -1.17399150346346       -0.07239551716481
H            0.52309564261782       -2.02458149854429       -0.00953787332960
H           -4.69118165044387        2.76896263632966       -0.10833451297080
H           -3.84601338856532        3.07200664715272        2.78921942372133
H           -4.79701054564323        1.72166865440151        2.15697849323219
H           -5.45727667818661        3.35710924327053        2.12548857604264
H           -2.81539428826464        4.77562220772835        1.18899891616109
H           -3.29906979243030        4.75008902870986       -0.51814316536558
H           -4.48897716832248        5.09000163673961        0.73189574908487
H           -0.78638149375449        3.20241701136453        2.85268752443890
