72
 energy: 20.674074895999 xtb: 6.6.1 (8d0f1dd)
N           -1.57546244010457        3.10884564856293        2.32882169346569
C           -1.54359336364356        2.30997655683894        1.36041474348759
C           -2.68115178827466        2.10218930276278        0.39814027165203
C           -3.17036526487487        0.66562945420345        0.49743301857839
C           -4.01974110697346        0.13188937553505       -0.47221502648222
C           -4.49211457846115       -1.15820389270851       -0.37538073598774
O           -6.68275032873041       -0.95315506020636       -3.50361138230610
C           -7.71432931157180       -0.67434183041767       -4.06825611144366
C           -4.14224569997106       -1.96205526848722        0.71036102272420
O           -4.67648847243801       -3.21584689272306        0.71913905924295
C           -4.44396393838141       -4.03981195405258        1.83277701241651
C           -3.29936545025272       -1.44398527165683        1.68434110669368
C           -2.82557648804023       -0.14521751536709        1.56897426112576
C           -2.10031336963239        2.37769587151198       -1.01489564331956
C           -1.19819911901306        1.26621457067947       -1.58442000107055
C            0.10272614486252        1.15522330387441       -0.88927305648590
N            0.65836880815327       -0.01424255170819       -0.44652820269021
C            2.04136566620383       -0.04202251661629       -0.07039457034880
C            2.96410397822389       -0.51371147871433       -1.21588453660167
C            4.40147000281615       -0.43231235332476       -0.80006912510463
C            5.11658971383246        0.74003629354863       -0.95987124693583
C            6.44189459325625        0.82601413816402       -0.55734177542863
C            7.07219521288507       -0.26299965909161        0.01719543676716
O            8.36638575879628       -0.29798842101548        0.44061423814341
C            9.15970098858516        0.84940862329968        0.27770945368741
C            6.34827314912431       -1.46475916789103        0.19351945788982
O            7.05231434002286       -2.48381098482424        0.75988102025968
C            6.42632313025489       -3.72934228253945        0.92823643205250
C            5.02790249360355       -1.53007123458990       -0.20986776770430
C           -0.04230666657029       -1.26503500874860       -0.55025346081412
C           -3.89817419203716        3.03581591184109        0.65444296321443
C           -4.52763064696525        2.77716568004995        2.02234058965607
C           -3.55453671401287        4.51843024490299        0.52149075574791
H           -4.32682909652017        0.72734797634780       -1.31780863910140
H           -5.14084214780659       -1.57450602793242       -1.12858077581508
H           -8.66186384478820       -0.51296554763075       -3.52931789626816
H           -7.77817526841396       -0.55552420183570       -5.16102817213894
H           -4.79121649254975       -3.57194590102558        2.75997284645082
H           -5.01821406925308       -4.94710644920167        1.65167911513289
H           -3.38386855588481       -4.29814536489090        1.93150925562610
H           -3.00681056104417       -2.03161005991042        2.54089735997747
H           -2.18704105260753        0.23944970143292        2.35097250340172
H           -2.92817212535356        2.52710935726461       -1.70891734994416
H           -1.52645265295997        3.30568072249448       -0.97809868153233
H           -1.73792666687824        0.32119283117965       -1.57412749110417
H           -1.01271693677678        1.52844067957710       -2.63655113929834
H           -0.65936773425040        1.71636217745490        1.07788835658506
H            0.73811348106782        2.02228366059145       -0.84643038737334
H            2.16136853172709       -0.70925918018788        0.78932563506505
H            2.34787540589025        0.96160780228362        0.23482627312741
H            2.78735995920349        0.12716441327019       -2.08157551729103
H            2.70227545695424       -1.53798897472127       -1.48498003373683
H            4.64738508775806        1.59983883339532       -1.41457853681665
H            6.97507413510900        1.75142499445707       -0.70684338948482
H            8.75873984095646        1.70320076149741        0.83446501210044
H            9.26621966814858        1.12229637395885       -0.77776142689118
H           10.13634913165187        0.58523935122763        0.68059216385962
H            7.18826558149457       -4.38119684078090        1.35322253256537
H            5.57878558468258       -3.66811706699078        1.61969042702179
H            6.08744984366278       -4.14605258908611       -0.02637428356091
H            4.46637651988447       -2.44321903222470       -0.08383280729227
H           -0.18775261088993       -1.57694087329737       -1.59033676205678
H           -1.02144939108678       -1.18806763650503       -0.07161334603153
H            0.53374000534983       -2.03190626678322       -0.03652620289010
H           -4.64464248515545        2.78796076441277       -0.10990187472628
H           -3.82643918310576        3.04060083489949        2.80731279846697
H           -4.80645632404943        1.73187942263178        2.13145168771221
H           -5.42352661203252        3.38364417457074        2.13386317976947
H           -2.76449165391545        4.78211072584107        1.21739610334105
H           -3.24199784396924        4.77086630172529       -0.48849691351573
H           -4.43357837920355        5.11355558246101        0.75803962218874
H           -0.72495239290205        3.16896377584355        2.88549318850838
