72
 energy: 123.419556261496 xtb: 6.6.1 (8d0f1dd)
N           -1.64121684812785        3.13768802142702        2.24819877950715
C           -1.62604427882028        2.25282343259062        1.36086244757939
C           -2.72685013174107        2.09101606356781        0.36737423457950
C           -3.22217598603158        0.66819860036662        0.43495499460413
C           -4.04413011384138        0.15387392158429       -0.56764793066650
C           -4.52087574689008       -1.12096972756205       -0.46793545915896
O           -7.29212583643066       -2.14438328459085       -3.19325114119671
C           -7.22919743960997       -0.94223575560670       -3.46982935542324
C           -4.21837272668238       -1.97024880342016        0.60513076761613
O           -4.77786738216697       -3.21037975098808        0.61662110474026
C           -4.51262848874194       -3.99079155859723        1.73139500580725
C           -3.40272853681851       -1.45537914555306        1.59454848904103
C           -2.92798230875473       -0.16433239175891        1.49059955995067
C           -2.10401550519465        2.38710757669691       -1.02743751167244
C           -1.17747935201752        1.28667479588339       -1.58452870499635
C            0.13792888511260        1.15355608562340       -0.91769805632658
N            0.66084112094315        0.00276271355901       -0.42716012819916
C            2.05229507381467       -0.04761958700069       -0.05192325787873
C            2.97059694159236       -0.51461592105289       -1.20399220559154
C            4.41311080210056       -0.43895735864776       -0.79648461749734
C            5.12995788157753        0.73142290492254       -0.95558056138456
C            6.45414910616153        0.81590788546629       -0.54651605948795
C            7.08321731263652       -0.27335892010621        0.02818167714281
O            8.37476156885250       -0.30627853196033        0.45490992096676
C            9.16745510323394        0.84197960466271        0.28682143939255
C            6.35683891481721       -1.47451286497794        0.20172178316008
O            7.05367790168934       -2.49213234461199        0.77629313844935
C            6.42004959061439       -3.73480126112318        0.94151565110544
C            5.03665934624035       -1.53731636908156       -0.20658586063404
C           -0.03885334345873       -1.25393917246643       -0.53215408846836
C           -3.94497726866479        3.02564021102644        0.62651143502154
C           -4.55893210382933        2.77621023210736        2.00393007281411
C           -3.58725157296149        4.50845810698146        0.49382437268811
H           -4.36981157981351        0.74848347996529       -1.42732304378998
H           -5.99371772058060       -0.95842537016733       -2.14296089765996
H           -7.91800841152219       -0.22834240529653       -3.01751626269138
H           -6.96365318522098       -0.76594189891364       -4.50313551104353
H           -4.84703366463057       -3.46766378849222        2.64267605521493
H           -5.06626654935566       -4.92087247938567        1.57492760402814
H           -3.44043699373537       -4.21078956760713        1.79821908114971
H           -3.14403689419939       -2.05580131527463        2.44054670880053
H           -2.31705154909541        0.19469760438795        2.28412776854896
H           -2.89939338303309        2.57280460157728       -1.74921011738834
H           -1.52603277524815        3.30744156919795       -0.95131613854465
H           -1.71405501440435        0.34087561773314       -1.58047284883333
H           -0.98726901682404        1.56182378140642       -2.63106973504934
H           -0.77332870082085        1.58684007453320        1.17952568641481
H            0.78100991998885        2.01832948652188       -0.86649842240749
H            2.17359914894424       -0.72479552357181        0.79898002295177
H            2.36371362072131        0.95203860826224        0.25273064691037
H            2.79599441530618        0.13388726928848       -2.06352755639893
H            2.71036146074052       -1.53642359247010       -1.47908390350266
H            4.66175749909609        1.59172059801086       -1.41081078801988
H            6.98660014826894        1.74269273210553       -0.68780664722573
H            8.76501465287822        1.69471038571973        0.84301984735316
H            9.27792384720029        1.10949432469323       -0.77064714071025
H           10.14495794297568        0.58510931342603        0.69085946681274
H            7.17377800715106       -4.39175284978745        1.37306916519229
H            5.56839927816340       -3.66656218574483        1.62798518584235
H            6.08618148861717       -4.14851847886643       -0.01712950991164
H            4.47449819888689       -2.45030205600842       -0.08398170791574
H           -0.14974300465840       -1.55551507213291       -1.57633391050290
H           -1.03027951371542       -1.18426120389953       -0.07903912340436
H            0.52627393700415       -2.02824874933834       -0.01716084578638
H           -4.71087515940232        2.78399779638704       -0.12626404012804
H           -3.84831518607846        3.05597055575178        2.77563706404559
H           -4.82509736649116        1.73005208347243        2.12779073075815
H           -5.45989371833543        3.37548197194400        2.11892911977653
H           -2.79631879623594        4.76396580155297        1.19101213594887
H           -3.26419434093386        4.76341973615371       -0.51208860882907
H           -4.45760764381922        5.11397602804317        0.73275006435006
H           -0.80856442448325        3.17416186194352        2.83210915891472
