72
 energy: 22.079042766949 xtb: 6.6.1 (8d0f1dd)
N           -1.58354176221112        3.12237593422633        2.33907658171643
C           -1.54543334071130        2.32231589012698        1.36952287864480
C           -2.67723157905482        2.10178971254195        0.40158114253268
C           -3.16633062276428        0.66312593079493        0.49723500317490
C           -4.02447154197181        0.14628604707915       -0.47087545586175
C           -4.53147092106007       -1.13412200059867       -0.36681987667911
O           -6.85951390609945       -1.40685852840049       -3.58561837592763
C           -7.69621640179131       -0.69501156686224       -4.07559872377247
C           -4.15555349499824       -1.95366702980745        0.70546737966637
O           -4.68572944070021       -3.21249522266748        0.72389577653857
C           -4.44461015281118       -4.03001131087876        1.84086044626137
C           -3.30136690244364       -1.43988156600537        1.67565481738199
C           -2.82273357419503       -0.14085739651611        1.57511784805769
C           -2.09271243776742        2.38136049390996       -1.01009751058493
C           -1.19681612858084        1.26782261884118       -1.58489234678621
C            0.10469986361972        1.15458222472603       -0.89053028707863
N            0.65722314036510       -0.01742994543281       -0.43047282386904
C            2.04360440792443       -0.04385968146423       -0.06676860498002
C            2.96526312127863       -0.51457955839604       -1.21268417882291
C            4.40313134433927       -0.43344593214192       -0.79648881959964
C            5.11878850566149        0.73914569623654       -0.95071950884945
C            6.44600114297809        0.82347206105958       -0.55508997186445
C            7.07742195928639       -0.26780473353485        0.01536126052773
O            8.37269906199203       -0.30425626705620        0.43733821199357
C            9.16415257490973        0.84471087223258        0.27534479366067
C            6.35387501419283       -1.47063200673449        0.18645793538088
O            7.06028702677921       -2.49587764529124        0.73993809189009
C            6.43348672673088       -3.74188799047125        0.90228215728007
C            5.03190798801115       -1.53356344257501       -0.21228680335235
C           -0.04365994957121       -1.26668301603451       -0.54384942684825
C           -3.89834874167183        3.03340523446848        0.65413422297313
C           -4.52997481174083        2.77871779610184        2.02193220217818
C           -3.56696270733130        4.52012907216382        0.51712353745736
H           -4.33319548516685        0.75492030790573       -1.30692343823599
H           -5.32100337884362       -1.47446785004862       -1.05347068048986
H           -8.58578486072151       -0.40119653075241       -3.50789754855581
H           -7.59677089063833       -0.27888927907730       -5.08719342383147
H           -4.79616050412725       -3.55959869849485        2.76657195222496
H           -5.01133760280869       -4.94277222058507        1.66127084332312
H           -3.38314302521605       -4.27566228082052        1.93877292011952
H           -3.00944786963600       -2.04075348091828        2.52112423225547
H           -2.18994051274797        0.24775450487122        2.36658160244593
H           -2.91919768007765        2.53424453015971       -1.70508460280650
H           -1.51786854234147        3.31161724585560       -0.97038499633368
H           -1.74012237279457        0.32394136696994       -1.57101708692312
H           -1.00744974270196        1.53144303774662       -2.63413835212713
H           -0.66091343047390        1.73003201153190        1.08891360529294
H            0.73849650402192        2.02160353409056       -0.84013719023568
H            2.15926264761615       -0.71122023950568        0.79257210042847
H            2.35005545430044        0.95965319329086        0.24307336652423
H            2.79049327990372        0.12678002159624       -2.07847490863371
H            2.70317013381775       -1.53920678712903       -1.48085236915253
H            4.65061346028549        1.60270313003308       -1.39813945299498
H            6.97739028599488        1.74976104034728       -0.70491857493051
H            8.76478890438238        1.69871902690101        0.83453051979223
H            9.26722313639057        1.12132800320690       -0.78048929097788
H           10.14185115541207        0.57745773173309        0.67519930615709
H            7.19652115331499       -4.39754871561761        1.31922219923551
H            5.58922657128103       -3.68541851664743        1.59819545775458
H            6.09066674007083       -4.15184686324714       -0.05364682181515
H            4.46980474454008       -2.44673364877421       -0.08806825893017
H           -0.19003466429443       -1.57831202623352       -1.58397719838816
H           -1.02242417646135       -1.18835312256068       -0.06644251900299
H            0.53174093016857       -2.03121873030068       -0.02850257895214
H           -4.64670941755361        2.77871479733354       -0.10622017083785
H           -3.83779080847034        3.05222656263780        2.81092051381069
H           -4.80201663237981        1.73160422347988        2.13523922393398
H           -5.43027193774406        3.38009075843627        2.12492759422462
H           -2.77589753968993        4.79426863829415        1.20997371877723
H           -3.25751575602598        4.77212052700725       -0.49431564251258
H           -4.45031487024120        5.11045952658829        0.75213085653981
H           -0.73790631086104        3.19035432237118        2.90570287524993
