72
 energy: 32.787905137350 xtb: 6.6.1 (8d0f1dd)
N           -1.60211140824523        3.12565409540087        2.31503091486682
C           -1.57451620485886        2.30233492052239        1.36819194586571
C           -2.69769477671734        2.09791765357878        0.39054643276291
C           -3.18729337592447        0.65276596628882        0.46964779156761
C           -4.07190609530629        0.12702046440046       -0.49738975418799
C           -4.67894018731973       -1.12631917442448       -0.44821302277422
O           -7.02790103985719       -1.78702429300514       -3.70292354101247
C           -7.49082771931428       -0.69992758272010       -3.96304799561903
C           -4.23628374944324       -1.93406087601911        0.64312282880222
O           -4.70701084116986       -3.20740616973768        0.68635645230682
C           -4.46378459966893       -4.00250320650997        1.80959642679042
C           -3.33957326513960       -1.44563016793955        1.62640694523467
C           -2.85669571516255       -0.14876418042049        1.54778192893567
C           -2.09268343370031        2.39112174272354       -1.00558284051883
C           -1.19321226017131        1.27562822112970       -1.57492615666042
C            0.11098346901993        1.15568634945030       -0.89303233359324
N            0.65989690754298       -0.00859286265613       -0.43814743785583
C            2.04331994591051       -0.03976344623809       -0.05900563780232
C            2.96762942472259       -0.50716398039058       -1.20335686096324
C            4.40771975927123       -0.43237570831172       -0.79122080188113
C            5.12393297679111        0.74125507770943       -0.93707181966864
C            6.45263683885285        0.82034430420176       -0.54523043889145
C            7.08875888439739       -0.27653880654792        0.00880120953346
O            8.38636012797159       -0.31724089497301        0.42485544262995
C            9.17793341489269        0.83303807636532        0.27079748416617
C            6.36502786145416       -1.48008396786196        0.17171453671145
O            7.07305143519600       -2.50983463857673        0.71752566234809
C            6.44680770895308       -3.75701343727979        0.87299096995353
C            5.04095163668192       -1.53821690150925       -0.22255257365790
C           -0.04209510948263       -1.25770737701997       -0.54266845542627
C           -3.92130680226813        3.02735634442104        0.64852025348185
C           -4.54269203291171        2.77244392564611        2.02118988094720
C           -3.59601629462946        4.50946065153190        0.50638578288701
H           -4.31297485658194        0.73868678328576       -1.34284061352143
H           -5.54049240269405       -1.41850453457385       -1.24512633377498
H           -8.32165971032265       -0.28706912971019       -3.37405557185350
H           -7.26654051008886       -0.14080888128128       -4.87157037942680
H           -4.81856496656624       -3.52461675922490        2.72787247018682
H           -5.01322357812114       -4.93022627171183        1.66111514205219
H           -3.39658343262750       -4.22062689716727        1.89532913888660
H           -3.05336651244770       -2.02407317701790        2.50608532430015
H           -2.23452050567415        0.22881752344473        2.34537574730466
H           -2.90487566036576        2.56118793409593       -1.71317545950358
H           -1.51009661512651        3.30994924377758       -0.92649678341738
H           -1.73627415754457        0.33288902795669       -1.56601096645952
H           -0.99942874277400        1.54168256120355       -2.62297015512704
H           -0.70498996397915        1.67084600458570        1.12811605148239
H            0.73899051934922        2.02664769435118       -0.82310048624601
H            2.15747157517055       -0.71197011847090        0.79850918605414
H            2.35451597488875        0.95881979947024        0.26054125827648
H            2.78921611111499        0.14073526183491       -2.06342174246663
H            2.70395560329565       -1.52926881753122       -1.47976900381761
H            4.65327838247548        1.60962972620440       -1.37330935713365
H            6.98405100078490        1.74798444574782       -0.68728720150475
H            8.77957639925608        1.68045958942409        0.84019144459007
H            9.27380892741614        1.11990812970084       -0.78162232279029
H           10.15860246517039        0.56428870926514        0.66179194229750
H            7.21019203990902       -4.41918852169070        1.27937492879289
H            5.60517141119216       -3.70476697251003        1.57267183916594
H            6.10086976035852       -4.15863725698882       -0.08468586905779
H            4.48022905287483       -2.45225474697506       -0.10215850227678
H           -0.17822036866448       -1.57288419338598       -1.58141508326115
H           -1.02316588133783       -1.17570340512634       -0.06918523636474
H            0.52647193029794       -2.02305070293490       -0.01748942049990
H           -4.67680005758587        2.77480281416020       -0.10819136277794
H           -3.84035389427003        3.05933413545868        2.79445121967391
H           -4.80441232636492        1.72347125215181        2.15225548821983
H           -5.44855317645376        3.36471802743202        2.12964633334208
H           -2.80495506774119        4.78238687733286        1.19927798531435
H           -3.29264765037894        4.75613658136474       -0.50741617016921
H           -4.48410118273917        5.09197148703975        0.74094338690858
H           -0.75866443487777        3.18995580192387        2.87029444741521
