25
 energy: -42.094377467017 gnorm: 0.009608058834 xtb: 6.6.1 (8d0f1dd)
C            3.15262760900656        1.41548112330928        0.01785150280675
N            2.34820701385947        0.27668411719759       -0.00421028759564
C            2.57970181450029       -2.30387637858471       -0.01060077746488
N            1.29610582072564       -2.22832666247666       -0.00811692563334
C            0.46954840372950       -1.10922308509640       -0.00411924793457
C            1.06149938420873        0.16980005273553        0.00138975775279
C            0.13381718160322        1.35606582325294        0.00265907077717
O            0.54568849361351        2.49231872039631        0.00699555064772
N           -1.20099505848338        1.05340383182152       -0.00662582344353
C           -2.16164995679850        2.15166091108284       -0.00944521754843
C           -1.76652271778618       -0.20808763455946       -0.00495438375466
O           -2.95443889608092       -0.37752568282708       -0.00520149644540
N           -0.87434133828117       -1.29043080874225       -0.00262208850001
C           -1.46815032217316       -2.61565309143391        0.00349105687358
H            3.71076628897262        1.45145164707071        0.95952157023718
H            3.88322729988215        1.36123120942793       -0.79423889617758
H            2.55514763237032        2.32986012451814       -0.07835214901823
H            3.21630340907564       -1.42229740334242       -0.00536528761063
H           -1.61632004154955        3.09168758884852       -0.00308300621756
H           -2.78964546463227        2.08315708255946       -0.89747489777507
H           -2.80122051402314        2.07780514230896        0.86987523339782
H           -1.18943584301246       -3.16752599885150        0.90287752189850
H           -1.20016213764416       -3.17187090689881       -0.89656285236133
H           -2.55098647683112       -2.47922173519386        0.00922179242735
H            0.78165992984779       -3.11832944492275       -0.01173810143796
