  72
        -99.34596709
 N         -1.7368446136        1.8427689656        2.6751540323
 C         -1.4968693672        2.0131089839        1.3072738925
 C         -2.7636817580        1.9372032728        0.3799493004
 C         -3.3923567844        0.5561362953        0.3911367443
 C         -4.3953429719        0.2524870849       -0.5331757100
 C         -5.0027081151       -0.9927313369       -0.5655094479
 O         -5.9747040775       -1.3655894185       -1.4217023319
 C         -6.4801456542       -0.4344202324       -2.3488639452
 C         -4.5981334005       -1.9935324566        0.3619805126
 O         -5.2313577022       -3.1755335459        0.2509329117
 C         -4.9226007849       -4.2091190556        1.1569665130
 C         -3.6156920061       -1.6777346069        1.2893509581
 C         -3.0264710367       -0.4227115017        1.3060330006
 C         -2.3056631273        2.2905360054       -1.0521367069
 C         -1.4825596923        1.1962086548       -1.7655348636
 C         -0.0993834798        1.0679337233       -1.2454714326
 N          0.4449263185       -0.0168300989       -0.7033769587
 C          1.8463750827        0.0915786241       -0.3067910647
 C          2.7782769384       -0.2769949568       -1.4701525207
 C          4.2108317377       -0.1670083758       -1.0282910980
 C          4.8965010715        1.0328071250       -1.1407054224
 C          6.2066325351        1.1452873125       -0.7035395404
 C          6.8590501596        0.0574045977       -0.1387357371
 O          8.1231289724        0.0502905430        0.3165474120
 C          8.8960167526        1.2255093279        0.2277118786
 C          6.1617293326       -1.1783757193       -0.0160437739
 O          6.8664899599       -2.1812095193        0.5384846596
 C          6.2696734312       -3.4485771986        0.6826238958
 C          4.8504919706       -1.2644804059       -0.4593570440
 C         -0.1410269390       -1.1883791321       -0.5070571477
 C         -3.8376307941        2.9518870288        0.8726407675
 C         -4.4405882243        2.4737950964        2.1886834775
 C         -3.3159241382        4.3793995498        1.0250996314
 H         -4.7186369886        1.0044736969       -1.2339104676
 H         -6.9180569823        0.4342150200       -1.8477952930
 H         -7.2576090931       -0.9625521174       -2.8974066562
 H         -5.7063582392       -0.1030681591       -3.0488201046
 H         -5.1337754340       -3.9133607772        2.1887402842
 H         -5.5665250435       -5.0416655930        0.8804478405
 H         -3.8755506233       -4.5160702403        1.0721058405
 H         -3.3025729078       -2.4077948326        2.0178806124
 H         -2.2999885359       -0.2017594900        2.0693066567
 H         -3.1844602561        2.4908900721       -1.6651487142
 H         -1.7151153158        3.2071796675       -1.0306205580
 H         -2.0188422272        0.2507264279       -1.7198301971
 H         -1.4176823695        1.4930493486       -2.8186186598
 H         -0.9853554114        2.9601049004        1.0759001727
 H          0.5367406666        1.9341602841       -1.3236376513
 H          2.0309219878       -0.5769092438        0.5356591140
 H          2.0530653145        1.1134958890        0.0171299095
 H          2.5919033967        0.3977685446       -2.3072270289
 H          2.5588491061       -1.2956827382       -1.7938544537
 H          4.4141793233        1.8909880106       -1.5829810427
 H          6.7163985066        2.0885948678       -0.8107794648
 H          8.4512521944        2.0412461936        0.8055402747
 H          9.0256312496        1.5413111736       -0.8116756931
 H          9.8653812651        0.9698881004        0.6510812681
 H          7.0321737175       -4.0810747830        1.1328179109
 H          5.3976970265       -3.4080074638        1.3429856555
 H          5.9778266321       -3.8665574950       -0.2856461742
 H          4.3143198362       -2.1967437609       -0.3768434985
 H         -1.1652802273       -1.3483830547       -0.7728323091
 H         -0.8727093010        1.1762563359        0.9748220174
 H          0.4125167840       -1.9779228933       -0.0423044055
 H         -4.6273176445        2.9662514171        0.1121605587
 H         -3.6179291673        2.1479414533        2.8415028901
 H         -5.1042177549        1.6256557567        2.0419693485
 H         -4.9873481423        3.2733264259        2.6809277628
 H         -2.6084820771        4.4524745024        1.8468896066
 H         -2.8421841766        4.7392075287        0.1157222576
 H         -4.1492590958        5.0418091205        1.2474807254
 H         -1.5104080527        2.6381774124        3.2576523701
