25
 energy: 0.000000000000 xtb: 6.6.1 (8d0f1dd)
C            3.23720132972391        1.16630909158653        0.08434468864950
N            2.29877796055224        0.07527476373246        0.03981602671198
C            2.58028186251803       -1.21425391179017        0.03006175752192
N            1.43813944744728       -1.93419254010258        0.00098261751768
C            0.39035684826767       -1.05887462812143       -0.00790371763344
C            0.93510047688824        0.21347817468824        0.01709077332874
C            0.09450143016486        1.40504290868848       -0.00410946993748
O            0.49712746915594        2.54126690785742       -0.00342325656480
N           -1.25076628431515        1.06271869620815       -0.03085477937476
C           -2.21907191394203        2.15522079838987       -0.05001256521996
C           -1.81739470187490       -0.20012724136556       -0.04692818139228
O           -2.99983858926755       -0.37846413507442       -0.07008877579474
N           -0.92618577614240       -1.30210203518959       -0.03682761236648
C           -1.46982251276835       -2.64643077634382       -0.06029819901142
H            3.71247229913541        1.21471443890471        1.06488839270555
H            4.00791460421487        1.03430799217987       -0.67357688121503
H            2.69909982127087        2.09770098766290       -0.09130154035862
H            3.56654087521359       -1.63682977417947        0.04233139674524
H           -1.67107945562430        3.09322822573871       -0.02552706696334
H           -2.82428927394145        2.09428605349656       -0.95318074103337
H           -2.87644002486466        2.07745706351925        0.81450059976605
H           -1.17061985538665       -3.19584861009707        0.83242224714061
H           -1.14560246782873       -3.17511580834413       -0.95688266944647
H           -2.55549768731684       -2.55659960601237       -0.07459039105944
H            1.38130842369251       -2.94313824728853       -0.01389874052104
25
 energy: -1.890009955631 xtb: 6.6.1 (8d0f1dd)
C            3.23717984712932        1.19369036970709        0.08516732650178
N            2.33471928710230        0.08026161818007        0.03784591074697
C            2.63478227160681       -1.27192482262258        0.03121816597773
N            1.43552292473463       -1.93322956031392        0.00128615113085
C            0.40629976151793       -1.04355270507326       -0.00806853343458
C            0.94627671068573        0.22954209539687        0.01548766561498
C            0.09768098393568        1.40498610509873       -0.00423720368269
O            0.48152332849634        2.57486956793089       -0.00273481419097
N           -1.26741353063847        1.06113803560465       -0.03086179659244
C           -2.24003446018076        2.15192711004628       -0.04958380016252
C           -1.82415725069227       -0.19232145576132       -0.04777797151917
O           -3.01988636193708       -0.38079996348820       -0.07152395393956
N           -0.92740748681720       -1.28726890512123       -0.03714938954262
C           -1.46352575598577       -2.63069970523933       -0.06048583990241
H            3.70886084491925        1.25691928968767        1.06800228330729
H            4.00441896759017        1.07806196081549       -0.67841890470892
H            2.67637380863019        2.11518605486194       -0.09063068075892
H            3.61538073553546       -1.86310301728852        0.04517065284246
H           -1.69400046938376        3.09240932595780       -0.02489656002291
H           -2.84878791730115        2.09543033251069       -0.95228784859600
H           -2.90090033094345        2.07785193869911        0.81421052596557
H           -1.15833505020655       -3.18036557130591        0.83177868617474
H           -1.13250040315810       -3.15990939280007       -0.95601752592884
H           -2.54979760112808       -2.54776294743170       -0.07545139476465
H            1.35994145146126       -2.93230696930722       -0.01300723832059
25
 energy: 12.709019328183 xtb: 6.6.1 (8d0f1dd)
C            3.23282135686729        1.22315314085663        0.08528768289693
N            2.37418041367131        0.07515154739970        0.03424400992082
C            2.69232752163566       -1.33087615203077        0.03279264294348
N            1.43175394792920       -1.92163582728209        0.00227333662017
C            0.42197148303322       -1.02568825572154       -0.00792774273059
C            0.96222659153031        0.24587869161670        0.01397653718832
C            0.10576305049213        1.40209469087859       -0.00383888297566
O            0.45101016264251        2.59372584811175       -0.00162039256227
N           -1.28241470405230        1.06344212386744       -0.03072723651323
C           -2.26072429088564        2.15184626492939       -0.04896384987128
C           -1.82347082464059       -0.18265943181649       -0.04850642917006
O           -3.02285089193641       -0.38342777142053       -0.07334545051372
N           -0.92608569772364       -1.26773849383832       -0.03731329332780
C           -1.45312443990195       -2.61156313805882       -0.06075460381789
H            3.70277526713256        1.31447841802687        1.06851987546834
H            4.00193346177687        1.14204336732914       -0.68155044660646
H            2.64244523488642        2.13136714807266       -0.09009389487610
H            3.64333967721543       -2.14618518419600        0.04803369900091
H           -1.72335945409039        3.09792208509269       -0.02399973044612
H           -2.87454963438342        2.09536637278907       -0.95009349372131
H           -2.92643330594493        2.07672156555163        0.81291945878023
H           -1.14368664473414       -3.16104378505876        0.83138201588363
H           -1.11652468493208       -3.14088810628265       -0.95539648180375
H           -2.54018140505824       -2.53680903327805       -0.07668776399031
H            1.34307211444323       -2.91564729679426       -0.01157565358171
25
 energy: 27.206138270679 xtb: 6.6.1 (8d0f1dd)
C            3.22318854182087        1.23916298421402        0.08452952620423
N            2.39239518327207        0.06441460427512        0.03204981159903
C            2.72062918795371       -1.36893665867972        0.03389268207935
N            1.43409310759639       -1.92042292807348        0.00379364184527
C            0.43088482698676       -1.02081887704171       -0.00726292693939
C            0.97256391544932        0.25104477029455        0.01401287160250
C            0.11443439943572        1.40581122375892       -0.00295877232694
O            0.43637856607828        2.60044108263509       -0.00051002474120
N           -1.28591870798142        1.07184745492599       -0.03059982363237
C           -2.27142590325036        2.15528814897276       -0.04851403561639
C           -1.81976875325969       -0.17598562684726       -0.04911848931182
O           -3.01831241365575       -0.38334807879484       -0.07507081298703
N           -0.92071066091028       -1.25620349653722       -0.03717115716322
C           -1.44524539909827       -2.59933515570882       -0.06095758418813
H            3.69188063028289        1.35492582065439        1.06682238304661
H            3.99641786236914        1.19196839343861       -0.68262848933419
H            2.60948008870415        2.13435946350361       -0.09063093272232
H            3.65869601563152       -2.31917877123701        0.04873738157542
H           -1.74541370276421        3.10705137945404       -0.02322909483868
H           -2.88803572142802        2.09455619700798       -0.94835830261244
H           -2.93972753860669        2.07491767435616        0.81186721371341
H           -1.13469646669770       -3.14604703185297        0.83209997950805
H           -1.10598710895298       -3.12606393639205       -0.95574909535282
H           -2.53259828906227       -2.52598901998062       -0.07787655097330
H            1.33901264505926       -2.91443082760155       -0.01013548623902
25
 energy: 32.998323359199 xtb: 6.6.1 (8d0f1dd)
C            3.21884862903131        1.24406460194718        0.08433360462700
N            2.39286919174620        0.06511345543565        0.03135777939466
C            2.72527243617800       -1.37472970385542        0.03393684875755
N            1.43775308169221       -1.91860479759356        0.00420323401908
C            0.43199838585833       -1.02003585545634       -0.00697227305453
C            0.97333695495541        0.25324330223906        0.01431367961051
C            0.11590381646220        1.41077546580332       -0.00277502776582
O            0.43051449092520        2.60284659831617       -0.00029629471705
N           -1.28637057314759        1.07572986641081       -0.03062175794959
C           -2.27370530651204        2.15699645286818       -0.04848235665618
C           -1.81970268489049       -0.17483086162633       -0.04918171538541
O           -3.01702928583902       -0.38342643531489       -0.07548598594738
N           -0.91845424179203       -1.25340953972605       -0.03693528966251
C           -1.44357480837579       -2.59715634288091       -0.06091494429239
H            3.68652864830621        1.36172992555336        1.06595697069920
H            3.99152686469142        1.20202245019958       -0.68204640778149
H            2.60294768381834        2.13605036736102       -0.09121557889370
H            3.67284148342647       -2.37244807990201        0.04893674198051
H           -1.75048431777491        3.10970027749613       -0.02316707980369
H           -2.89019337132205        2.09448882547802       -0.94839449036078
H           -2.94179207751009        2.07470362248016        0.81201872279652
H           -1.13346455267761       -3.14307782080693        0.83226316690705
H           -1.10435392143462       -3.12306631660395       -0.95567589577481
H           -2.53113263311986       -2.52444092743859       -0.07809204255192
H            1.34213041227722       -2.91320974163962       -0.01002969600022
25
 energy: 40.338386202851 xtb: 6.6.1 (8d0f1dd)
C            3.21612074352945        1.24912873586460        0.08430004493568
N            2.38850822060658        0.07153826751444        0.03047941541867
C            2.72483280773899       -1.37215776564687        0.03309629021362
N            1.44199073510445       -1.91414678102216        0.00430967973739
C            0.43050744612263       -1.01902980471908       -0.00679246046416
C            0.97125172650084        0.25611169451930        0.01477131245177
C            0.11545652245712        1.41734874241101       -0.00266323491007
O            0.42348077777094        2.60591694556144       -0.00007074292882
N           -1.28718333344534        1.07833316978138       -0.03072303695923
C           -2.27564197917501        2.15779479261041       -0.04858267452615
C           -1.82171970906994       -0.17506446931217       -0.04919441707397
O           -3.01745367393197       -0.38345437622149       -0.07565172551890
N           -0.91747554002560       -1.25170149685109       -0.03662902544127
C           -1.44356446792002       -2.59670007115099       -0.06080520607206
H            3.68329920714539        1.36443470103755        1.06550499603352
H            3.98792713296909        1.20626211877013       -0.68120594515011
H            2.60214024224203        2.13999467413761       -0.09164613400668
H            3.70185167082071       -2.42832348292851        0.04974741012476
H           -1.75393309842361        3.11081191386440       -0.02327186065531
H           -2.89179351776940        2.09467913397908       -0.94862886397797
H           -2.94333945226490        2.07488588060457        0.81212087062047
H           -1.13359857912822       -3.14178971681958        0.83238323545884
H           -1.10436287396158       -3.12169785424562       -0.95555089374932
H           -2.53129586643750       -2.52459076120040       -0.07806819466038
H            1.34620916351730       -2.90955540179390       -0.01019492670576
25
 energy: 52.857545669835 xtb: 6.6.1 (8d0f1dd)
C            3.21369938773630        1.25680119317894        0.08445967624047
N            2.37775473191395        0.08664356180242        0.02869973452723
C            2.71750520137293       -1.35769679078943        0.02831318719643
N            1.44608301454862       -1.90571706179042        0.00351807296002
C            0.42561290919615       -1.01670856554949       -0.00660865550075
C            0.96502429736991        0.26081121941217        0.01576957408658
C            0.11238235093755        1.42594364651150       -0.00193546987292
O            0.41480552344995        2.61101135117509        0.00048679156437
N           -1.28950547555146        1.07976012641283       -0.03081988643243
C           -2.27830470874924        2.15811385864669       -0.04895083156394
C           -1.82652224182482       -0.17615637181650       -0.04908652558997
O           -3.02045340938065       -0.38304134035068       -0.07571514640268
N           -0.91872360328461       -1.25052246195318       -0.03598597263605
C           -1.44493761568937       -2.59762998442203       -0.06052036323468
H            3.68132744338548        1.36521614942347        1.06567353177822
H            3.98457427959831        1.20663178494585       -0.68064678508801
H            2.60481859818777        2.14917329850590       -0.09156770973486
H            3.76520638495943       -2.51442344298920        0.05385505088907
H           -1.75699094695439        3.11119324980363       -0.02364487908010
H           -2.89392555509503        2.09544350299818       -0.94923527766158
H           -2.94559163517249        2.07581273149188        0.81198224102136
H           -1.13436255351724       -3.14172178404101        0.83257967691218
H           -1.10514509478442       -3.12143078310080       -0.95526400678554
H           -2.53267982161819       -2.52633275111145       -0.07778483995217
H            1.35056284393803       -2.90214554765036       -0.01053727544567
25
 energy: 57.727051117998 xtb: 6.6.1 (8d0f1dd)
C            3.20615152477689        1.27429824682242        0.08535213882987
N            2.35750889872973        0.11646564100016        0.01748301607770
C            2.70659866666418       -1.32913393579797       -0.01636612015739
N            1.45593801800963       -1.88456239839962       -0.00621258236926
C            0.41775917647607       -1.00879067642694       -0.00614459502900
C            0.95291596983678        0.27348299912284        0.02029435952182
C            0.10518274148087        1.44348453284354        0.00762137856363
O            0.39527821868450        2.62206382740524        0.00354653443834
N           -1.29604603374958        1.08439084415355       -0.02977895540803
C           -2.28545488317426        2.15995897581595       -0.05105736211283
C           -1.83489499781048       -0.17718564543020       -0.04780444026944
O           -3.02539540281096       -0.38326323694439       -0.07618413353659
N           -0.92073794768966       -1.24639503471622       -0.03191595790431
C           -1.44537205565174       -2.59792023740674       -0.05826431496708
H            3.67546546134376        1.36731570040478        1.06568738945711
H            3.97473585158566        1.21273895158602       -0.67953602951206
H            2.60676002540580        2.16942924875934       -0.08868445988380
H            3.88951849657883       -2.72143438045468        0.09174868921389
H           -1.76485023481230        3.11300215907288       -0.02573953717497
H           -2.89915343891548        2.09630954842207       -0.95226882796637
H           -2.95204710248119        2.07786705277497        0.81019183847842
H           -1.13377053681556       -3.14050928457333        0.83451511296277
H           -1.10430745242362       -3.11946702500729       -0.95302101588218
H           -2.53328903022539       -2.52944306857931       -0.07577308998277
H            1.36372037195998       -2.88367401570301       -0.01065512319289
25
 energy: 56.408873347685 xtb: 6.6.1 (8d0f1dd)
C            3.19130410946336        1.29713046936255        0.08369642976888
N            2.31012118238188        0.16542573807533        0.01684293295067
C            2.67169309019544       -1.25845502463559       -0.03946628973503
N            1.47454553430509       -1.84364640690036       -0.00802712655502
C            0.40082534609007       -0.99328658320180       -0.00198507225273
C            0.93042686612995        0.29111054160219        0.02726269629639
C            0.08942811735174        1.47186725573232        0.00918886908775
O            0.37079845437206        2.62756191919200        0.00384430847822
N           -1.30192491855554        1.09431874105774       -0.03097791715952
C           -2.29396239560404        2.16305290313281       -0.05133588474024
C           -1.84590962021520       -0.18076098093853       -0.04820806146433
O           -3.02984538831806       -0.38267561904697       -0.07675818533255
N           -0.92318269821015       -1.23983514288542       -0.03017118711164
C           -1.44483518410684       -2.59916082083652       -0.05826234903627
H            3.66403271341645        1.36872733894758        1.06180647892592
H            3.96006441496389        1.21138401804234       -0.67600020712688
H            2.61051331701604        2.19525281630510       -0.09189158236892
H            4.08889480226588       -3.04785361867629        0.11211751904148
H           -1.77505656479198        3.11597501651803       -0.02587582385695
H           -2.90534107493560        2.09642407631774       -0.95287357923075
H           -2.95757843808392        2.07765735859820        0.81107886370475
H           -1.13154838749933       -3.13854073400656        0.83412054525533
H           -1.10167337882703       -3.11706529983057       -0.95259435648180
H           -2.53286937301238       -2.53396134638631       -0.07601915253241
H            1.39329377918065       -2.85161782679502       -0.01247795632982
25
 energy: 54.023211883421 xtb: 6.6.1 (8d0f1dd)
C            3.18039777495916        1.30361956334085        0.07711191477159
N            2.27293449164389        0.18920455898506        0.02852468551982
C            2.64054669545814       -1.17100687929899        0.00279192292668
N            1.48108994927420       -1.80923202597505        0.00021760692061
C            0.38554696575647       -0.97557120307056        0.00251017717911
C            0.91225298243883        0.30004410497980        0.02662772899535
C            0.06459535510328        1.47859762397826       -0.00445357771938
O            0.36196524104973        2.63125440109500        0.00064747950487
N           -1.30792429233897        1.09756928477075       -0.03186840914456
C           -2.30006276047651        2.16510552634293       -0.04799993209351
C           -1.85166179450669       -0.18377780083515       -0.04852411427746
O           -3.03700201567848       -0.38038011237916       -0.07611440182718
N           -0.93446075931659       -1.23743299198344       -0.03369553971290
C           -1.44691298262842       -2.60017926168043       -0.06156442009974
H            3.65417384435189        1.36237180059754        1.05667361106295
H            3.95537849773781        1.19169593109058       -0.67485298890274
H            2.62059601326543        2.21493690011905       -0.10076073610873
H            4.25633141912419       -3.26216489420245        0.09316842423321
H           -1.77862994193026        3.11756764266139       -0.02280078354656
H           -2.90988403322306        2.09752230896303       -0.94952435272036
H           -2.96088595698825        2.07742388681907        0.81526138635109
H           -1.13023966203771       -3.13948094336914        0.83016173601457
H           -1.10066016277317       -3.11705143350881       -0.95577210128114
H           -2.53455006342865       -2.53883593489603       -0.07910103696449
H            1.41927950013615       -2.82277126380008       -0.01963036688650
25
 energy: 52.111034143094 xtb: 6.6.1 (8d0f1dd)
C            3.17450094137017        1.30604074787392        0.08056049279086
N            2.25875467608878        0.19518168255267        0.03299751191939
C            2.62968469032540       -1.10157362453791        0.01922907753060
N            1.47503938517187       -1.79477519872858        0.00310267711697
C            0.37765862253452       -0.96481403579715       -0.00283904105790
C            0.89638534682962        0.30828911337983        0.02145397332087
C            0.03901320182837        1.47410265811443       -0.00002725626435
O            0.36307030167219        2.63516888935727        0.00296881686532
N           -1.31675783073936        1.09878140832498       -0.03031072662476
C           -2.30692110589906        2.16807996216753       -0.05065236424052
C           -1.85300297272331       -0.18377825917831       -0.04990296910150
O           -3.04362302017475       -0.37663500975460       -0.07674952703830
N           -0.94754921217928       -1.23854053806145       -0.03788027012163
C           -1.45065785603611       -2.60024663784031       -0.06014621139108
H            3.65403362449252        1.35758938541440        1.05943471565550
H            3.94746240218043        1.18173564152987       -0.67432061388879
H            2.62582262532236        2.22838283758368       -0.09492784392606
H            4.38886854077870       -3.39375193940104        0.06155884805363
H           -1.77879225759802        3.11808400312458       -0.02446324593205
H           -2.91335569856651        2.10051330362598       -0.95400367956426
H           -2.96697757443031        2.08068072514716        0.81226023393222
H           -1.13014719005669       -3.13953692383698        0.83177469189162
H           -1.10294294624911       -3.11990886911785       -0.95352987677007
H           -2.53804391104975       -2.54269567653642       -0.07644181219977
H            1.43069152207980       -2.80734485666163       -0.01211168876136
25
 energy: 51.790808410677 xtb: 6.6.1 (8d0f1dd)
C            3.17251526238398        1.30795635833244        0.08164380023048
N            2.25925877690731        0.19479051639346        0.03724684399642
C            2.63135078287067       -1.08893254888733        0.03070801942837
N            1.46650693353418       -1.79882320269756        0.00338951812678
C            0.37960768462120       -0.96434665188199       -0.00568171677936
C            0.88740703788137        0.31482615616254        0.01728812983224
C            0.02887798989964        1.47063144009472       -0.00510355386370
O            0.36690828621587        2.63506824136064       -0.00222013478631
N           -1.32276739337934        1.09989369564489       -0.03182047693749
C           -2.31112136045081        2.17048107281445       -0.04859479693875
C           -1.85130321821373       -0.18150121277965       -0.04935649380292
O           -3.04436612736293       -0.37534778497778       -0.07432958210247
N           -0.94986905941028       -1.23956445588740       -0.03910803342382
C           -1.45095159957717       -2.59889723264583       -0.06187562146596
H            3.65272053421988        1.36121350942559        1.06006392226243
H            3.94471012087545        1.17789567476491       -0.67455387981961
H            2.62541574343505        2.23181025104654       -0.09788425788732
H            4.43522076893535       -3.42351492800836        0.05988901110046
H           -1.77798735378384        3.11832497919425       -0.02359155783830
H           -2.91863071111834        2.10343780587026       -0.95088647324619
H           -2.96832460971724        2.08357952650465        0.81635224856582
H           -1.13078555915012       -3.13998596786421        0.82971761700068
H           -1.10273436904190       -3.11972760254309       -0.95521258837791
H           -2.53851843774278       -2.54279614086287       -0.07868619567137
H            1.42907418214100       -2.80744270982923       -0.01035983540762
25
 energy: 51.683179582864 xtb: 6.6.1 (8d0f1dd)
C            3.17299249201085        1.30724078422443        0.08253615922917
N            2.26055616090302        0.19363641683120        0.03804818723266
C            2.63075370714244       -1.09061898140745        0.03067920052422
N            1.45821387598076       -1.80351801258364        0.00278347654809
C            0.38186460984943       -0.96527881930652       -0.00707271498649
C            0.88290059241772        0.31831340823628        0.01657524816158
C            0.02559188720685        1.46915711901419       -0.00176287366700
O            0.36987448299989        2.63447206303071        0.00104023850935
N           -1.32539801154056        1.10016215256091       -0.03116353110517
C           -2.31244873608081        2.17098686493179       -0.05008431551545
C           -1.85011911954036       -0.17953358163518       -0.04938650917250
O           -3.04394068306249       -0.37540923886130       -0.07531104415350
N           -0.94939087623664       -1.23980932406881       -0.03826326421995
C           -1.45067923496376       -2.59775283150361       -0.06068407444081
H            3.65448226167585        1.35918881057021        1.06015754598398
H            3.94459819467320        1.17909149918331       -0.67536013905400
H            2.62467075810810        2.23067126865726       -0.09492710772331
H            4.45031903916386       -3.41570499143598        0.05307286852644
H           -1.77720408203187        3.11783423054930       -0.02406662900159
H           -2.91743332453813        2.10358209075588       -0.95385516212159
H           -2.97107503741132        2.08397005904305        0.81353114432151
H           -1.13075513941649       -3.13928181188635        0.83110515099666
H           -1.10291883890723       -3.11995307448778       -0.95372115475374
H           -2.53846298849297       -2.54238586860520       -0.07722577841488
H            1.42522231506312       -2.81003144306267       -0.00961100950907
25
 energy: 51.633995813319 xtb: 6.6.1 (8d0f1dd)
C            3.17370058033530        1.30528403765778        0.08244974535820
N            2.26117021361680        0.19178362022345        0.03878596263206
C            2.62764270437300       -1.09433510972442        0.03307435189489
N            1.45142849700309       -1.80654381382201        0.00337085910940
C            0.38258391619481       -0.96640977055343       -0.00808879250463
C            0.88095250062385        0.31907418242745        0.01466943272033
C            0.02517126914359        1.46833392862672       -0.00468538151518
O            0.37180135142661        2.63363708045180       -0.00121103445451
N           -1.32624343419878        1.09985489607842       -0.03221235213719
C           -2.31239201714990        2.17108246128636       -0.04883935702758
C           -1.85013104130410       -0.17824205755863       -0.04960408207608
O           -3.04402848232928       -0.37569261729023       -0.07457152007203
N           -0.94917669403049       -1.23993234755033       -0.03831570870500
C           -1.45093830760529       -2.59735895935179       -0.06166948574317
H            3.65454064837813        1.35942873338252        1.06022487678472
H            3.94596702535666        1.17740382543699       -0.67502898084809
H            2.62442257333267        2.22775799349172       -0.09666793517534
H            4.46044213206946       -3.39819918898136        0.05577698038117
H           -1.77638805954218        3.11756968093989       -0.02362297792826
H           -2.91922293544323        2.10430461527767       -0.95132344613813
H           -2.96931826117985        2.08423357068784        0.81598138227255
H           -1.13134802100476       -3.13969728529858        0.82992666196736
H           -1.10321904035478       -3.11958535974272       -0.95486390221661
H           -2.53878621361067       -2.54218593102755       -0.07842673946300
H            1.42358340087175       -2.81253739632353       -0.00809464492130
25
 energy: 51.600060044401 xtb: 6.6.1 (8d0f1dd)
C            3.17412818133968        1.30344693636731        0.08255310347513
N            2.26141988047655        0.18995628124477        0.03856478825656
C            2.62405169134673       -1.09827681213151        0.03175482211486
N            1.44724510088189       -1.80741899518094        0.00271149981056
C            0.38145850401003       -0.96673788731711       -0.00791364037564
C            0.88093162041409        0.31836412597495        0.01548534420961
C            0.02607152660507        1.46831930199183       -0.00226995110068
O            0.37164422812733        2.63359906253764        0.00097251292079
N           -1.32628619101505        1.09945861819922       -0.03131612260255
C           -2.31200233377221        2.17101252365380       -0.04998275196794
C           -1.85131396964716       -0.17752227000215       -0.04912600898890
O           -3.04487957912689       -0.37563816226487       -0.07508093805108
N           -0.95001576677121       -1.23961331875766       -0.03734538565440
C           -1.45157003925429       -2.59736705978419       -0.06087152406694
H            3.65550818719421        1.35729919129723        1.06015320439167
H            3.94592192161051        1.17719437490322       -0.67556589520677
H            2.62449519983811        2.22623776828452       -0.09498350154762
H            4.47073960427206       -3.38484125684880        0.05362683370862
H           -1.77625232727770        3.11762996673551       -0.02424410154207
H           -2.91751210878310        2.10419283069683       -0.95343682045545
H           -2.97059831731065        2.08481407054940        0.81367400261177
H           -1.13166322404906       -3.13946817268936        0.83080547685637
H           -1.10360063384503       -3.11959322474737       -0.95396359194522
H           -2.53935735023047       -2.54233713417106       -0.07748422922158
H            1.42365049993902       -2.81368196979719       -0.00968321343448
25
 energy: 51.591793378312 xtb: 6.6.1 (8d0f1dd)
C            3.17401795642593        1.30237352837921        0.08232718651216
N            2.26138185445524        0.18865003947357        0.03814436093060
C            2.62070980242563       -1.10158530792667        0.03197441121991
N            1.44517956293610       -1.80693832985156        0.00344940985066
C            0.37923239294939       -0.96612319080705       -0.00806604128340
C            0.88186288076618        0.31743031752840        0.01502600025604
C            0.02746577063768        1.46867504065270       -0.00386103483156
O            0.37066463995654        2.63402752801671       -0.00033768446039
N           -1.32591959418453        1.09921847329037       -0.03189505471983
C           -2.31162771927126        2.17098191955270       -0.04920528330251
C           -1.85273220709510       -0.17725311372958       -0.04979577760837
O           -3.04597921008412       -0.37529575714153       -0.07514039441042
N           -0.95148692593824       -1.23910059439324       -0.03785077916144
C           -1.45207368379813       -2.59757695394537       -0.06131929660043
H            3.65482556368312        1.35721301724782        1.06028356613016
H            3.94620490111561        1.17622386790207       -0.67522897323576
H            2.62458674012034        2.22549393226929       -0.09583720316533
H            4.48098272347159       -3.37897375517058        0.05555369197030
H           -1.77627613769973        3.11779317687861       -0.02362058696475
H           -2.91821553515832        2.10453330039514       -0.95206277969481
H           -2.96942696634319        2.08442449794853        0.81514112588414
H           -1.13169125796413       -3.13933068579917        0.83035155118365
H           -1.10360717027525       -3.11943877932354       -0.95437065456084
H           -2.53973464080179       -2.54273827562806       -0.07801549074322
H            1.42387056464288       -2.81365510707476       -0.00861035699998
25
 energy: 51.607951079514 xtb: 6.6.1 (8d0f1dd)
C            3.17379752759712        1.30238097966924        0.08233141708987
N            2.26125896561513        0.18856926917607        0.03813070149472
C            2.61957635443914       -1.10228380952087        0.03155001533184
N            1.44539257322299       -1.80616693940955        0.00300222953328
C            0.37798717078512       -0.96527584323379       -0.00759218643446
C            0.88248227716574        0.31727999424484        0.01579075991300
C            0.02780542798643        1.46884417028697       -0.00300102929020
O            0.36998807132232        2.63430711868821        0.00016915933603
N           -1.32578195919181        1.09923425370637       -0.03136717798521
C           -2.31165080202535        2.17102008127521       -0.04966363446945
C           -1.85315540953880       -0.17744920486428       -0.04915796011095
O           -3.04639956123361       -0.37513697613631       -0.07492262381126
N           -0.95224612780097       -1.23893831808428       -0.03761487727464
C           -1.45213888673039       -2.59769327223684       -0.06115434669959
H            3.65486804263576        1.35705781670874        1.06020929254056
H            3.94584852926691        1.17626320724183       -0.67537112082541
H            2.62452717954790        2.22573298095171       -0.09560778149435
H            4.48540713361420       -3.38081931750272        0.05541831642241
H           -1.77645481199644        3.11788366522869       -0.02418471198817
H           -2.91773719115913        2.10410805217743       -0.95283359406326
H           -2.96991701270291        2.08469987350877        0.81435750899396
H           -1.13156071179516       -3.13939768238317        0.83042202865488
H           -1.10357074672032       -3.11927255563305       -0.95430045312082
H           -2.53975896720078       -2.54289297715333       -0.07776099687070
H            1.42364723986936       -2.81302577796187       -0.00981502267748
25
 energy: 51.620259420039 xtb: 6.6.1 (8d0f1dd)
C            3.17366449800979        1.30264444541414        0.08231501472875
N            2.26122319487530        0.18887813429299        0.03798200111721
C            2.61942059122017       -1.10216753687487        0.03129066718448
N            1.44596641825474       -1.80585882695016        0.00324895831484
C            0.37762539318718       -0.96469831796202       -0.00769924093516
C            0.88266296243172        0.31752608771513        0.01555380709342
C            0.02753946299013        1.46880073495338       -0.00357739940896
O            0.36984788744473        2.63438320502628       -0.00020997257258
N           -1.32582803521682        1.09932122699206       -0.03181576317565
C           -2.31178722378559        2.17106544040159       -0.04928509289675
C           -1.85296812789013       -0.17769029709023       -0.04990262399206
O           -3.04640805950227       -0.37501845959530       -0.07527467894784
N           -0.95242108451947       -1.23905052287599       -0.03816178012065
C           -1.45205828615561       -2.59771474953505       -0.06118042566998
H            3.65464684103612        1.35722953420145        1.06023336726089
H            3.94589577259312        1.17633623705311       -0.67525473786750
H            2.62453984906106        2.22600771710133       -0.09578070506964
H            4.48670451772215       -3.38313093385020        0.05589628351535
H           -1.77647749191371        3.11785313403600       -0.02353031359823
H           -2.91807642211817        2.10443589743720       -0.95229603806198
H           -2.96968606945876        2.08423753511589        0.81494645077837
H           -1.13156151591560       -3.13916274747013        0.83056709490753
H           -1.10347189866644       -3.11956174181413       -0.95416423712765
H           -2.53970612419052       -2.54293686357549       -0.07791339939395
H            1.42292725547932       -2.81269954340294       -0.00895332386774
