25
 energy: 0.000000000000 xtb: 6.6.1 (8d0f1dd)
C            3.23720132972391        1.16630909158653        0.08434468864950
N            2.29877796055224        0.07527476373246        0.03981602671198
C            2.58028186251803       -1.21425391179017        0.03006175752192
N            1.43813944744728       -1.93419254010258        0.00098261751768
C            0.39035684826767       -1.05887462812143       -0.00790371763344
C            0.93510047688824        0.21347817468824        0.01709077332874
C            0.09450143016486        1.40504290868848       -0.00410946993748
O            0.49712746915594        2.54126690785742       -0.00342325656480
N           -1.25076628431515        1.06271869620815       -0.03085477937476
C           -2.21907191394203        2.15522079838987       -0.05001256521996
C           -1.81739470187490       -0.20012724136556       -0.04692818139228
O           -2.99983858926755       -0.37846413507442       -0.07008877579474
N           -0.92618577614240       -1.30210203518959       -0.03682761236648
C           -1.46982251276835       -2.64643077634382       -0.06029819901142
H            3.71247229913541        1.21471443890471        1.06488839270555
H            4.00791460421487        1.03430799217987       -0.67357688121503
H            2.69909982127087        2.09770098766290       -0.09130154035862
H            3.56654087521359       -1.63682977417947        0.04233139674524
H           -1.67107945562430        3.09322822573871       -0.02552706696334
H           -2.82428927394145        2.09428605349656       -0.95318074103337
H           -2.87644002486466        2.07745706351925        0.81450059976605
H           -1.17061985538665       -3.19584861009707        0.83242224714061
H           -1.14560246782873       -3.17511580834413       -0.95688266944647
H           -2.55549768731684       -2.55659960601237       -0.07459039105944
H            1.38130842369251       -2.94313824728853       -0.01389874052104
25
 energy: -6.333419718200 xtb: 6.6.1 (8d0f1dd)
C            3.24172548542499        1.17906522074401        0.08614430037703
N            2.32014839503198        0.09328498143309        0.03442697441917
C            2.61693784696327       -1.25752211803334        0.03255191323033
N            1.42141497249393       -1.93606298867380        0.00162807048479
C            0.40409824308427       -1.05550698032224       -0.00808882884822
C            0.93148978789645        0.22789823939888        0.01491526094416
C            0.12084032499944        1.38763935613428       -0.00467169354607
O            0.49002555790164        2.56492453731659       -0.00413646370110
N           -1.26682577314068        1.05226186479270       -0.03102353981729
C           -2.22307615682516        2.14926091878360       -0.04945527769333
C           -1.81506015597778       -0.19368059822526       -0.04716828856107
O           -3.01327244479278       -0.38369218102209       -0.07003159325651
N           -0.93470510365716       -1.29518197002106       -0.03718152311137
C           -1.46859719663306       -2.63754209480533       -0.06041672747322
H            3.71600183107384        1.23119364377623        1.06968963448197
H            4.01205172128085        1.05098544676080       -0.67552959695869
H            2.69118637077976        2.10359172123902       -0.09146942345110
H            3.57676670363638       -1.73534368180411        0.04409203181774
H           -1.66961109776261        3.08590013041817       -0.02509021834034
H           -2.83008796304919        2.09400764523221       -0.95323371738451
H           -2.88159670942155        2.07688402464401        0.81601208232169
H           -1.16586579602307       -3.19063376837803        0.83176177280870
H           -1.14128284806737       -3.17023039238832       -0.95646697341596
H           -2.55413608815449       -2.55101007296698       -0.07462625362530
H            1.36203392990914       -2.93917696582052       -0.01421719985645
25
 energy: -5.441126120852 xtb: 6.6.1 (8d0f1dd)
C            3.24357844575820        1.18527044409008        0.08630336550268
N            2.33748508838462        0.08423811271951        0.03360775968265
C            2.63437492413807       -1.27753983385917        0.03286401616849
N            1.42436638309345       -1.93423336766991        0.00355916441511
C            0.40991386706721       -1.05032969588389       -0.00808017838144
C            0.94376594150862        0.23059064959513        0.01415770903383
C            0.12742953485973        1.39071517594261       -0.00453456814952
O            0.48669925146276        2.57092625219229       -0.00408068790076
N           -1.26558969090665        1.05353120838194       -0.03101753162321
C           -2.22677856787696        2.14780038206633       -0.04921336615126
C           -1.81504100902023       -0.19157077690541       -0.04743163034699
O           -3.01336652386465       -0.38302642068210       -0.07017978489629
N           -0.93115017383670       -1.28995097543822       -0.03727528077094
C           -1.46577609607267       -2.63288515974361       -0.06046195473366
H            3.71641570607349        1.24364457427387        1.07027557840597
H            4.01315818783479        1.06718738982664       -0.67709316250056
H            2.68173100309910        2.10555006191874       -0.09040198246129
H            3.57307515886708       -1.82374270043123        0.04531659909633
H           -1.67609860237692        3.08560581630196       -0.02486115481293
H           -2.83526230536803        2.09234002072108       -0.95259207584054
H           -2.88649397868177        2.07498159711752        0.81594936817326
H           -1.16319786094776       -3.18636739416101        0.83146785123072
H           -1.13814353023571       -3.16591614491297       -0.95611487134335
H           -2.55163310878994       -2.54743643675970       -0.07502755576315
H            1.35168662446681       -2.93585420680052       -0.01328618327865
25
 energy: -3.591365868142 xtb: 6.6.1 (8d0f1dd)
C            3.24428651136545        1.19037414491836        0.08610004560716
N            2.35312405064394        0.07513230236116        0.03256109511238
C            2.65121025756282       -1.29751739300345        0.03311398687490
N            1.42717333846423       -1.93125221456516        0.00358429254497
C            0.41493427455893       -1.04476096893050       -0.00807558246972
C            0.95434615116192        0.23375016411629        0.01366073374897
C            0.13118868502666        1.39512181684006       -0.00419406962758
O            0.48315265217597        2.57683744999811       -0.00357694308658
N           -1.26532506648180        1.05582755437072       -0.03087510165894
C           -2.23083117959282        2.14791539493867       -0.04915514643392
C           -1.81491228689721       -0.18902333789766       -0.04764832776460
O           -3.01342603980926       -0.38151771716538       -0.07058891181264
N           -0.92814380870935       -1.28478389404353       -0.03721365960108
C           -1.46262004242765       -2.62870122772338       -0.06050514969364
H            3.71619755873740        1.25374948382071        1.07018504630895
H            4.01291079526942        1.08163252716929       -0.67900634525751
H            2.67094153371521        2.10606225013296       -0.08916843619145
H            3.56885611893005       -1.90841084651352        0.04644429178834
H           -1.68346730459307        3.08730340576002       -0.02469117099163
H           -2.84038266201759        2.09205221058872       -0.95221963023639
H           -2.89185916160336        2.07454921565254        0.81541576857134
H           -1.15953362713141       -3.18219838918421        0.83120666884202
H           -1.13386342623127       -3.16158748877435       -0.95576898637196
H           -2.54884454384510       -2.54569633081734       -0.07551682731406
H            1.34291312771951       -2.93108674332670       -0.01242494540415
25
 energy: -0.781602864790 xtb: 6.6.1 (8d0f1dd)
C            3.24417364285682        1.19543587076821        0.08542165512042
N            2.36846761746286        0.06511064727459        0.03151466819659
C            2.66728065470076       -1.32002595902672        0.03337029784985
N            1.42880287157437       -1.92947359308543        0.00166467924784
C            0.41978745273291       -1.03937091054119       -0.00783983697416
C            0.96471330475948        0.23627601187499        0.01404187490207
C            0.13320353743533        1.39877523258805       -0.00262082381079
O            0.47839867837110        2.58174710513551       -0.00193660146539
N           -1.26578235806401        1.05814611210855       -0.03025654623241
C           -2.23516593985525        2.14837389032626       -0.04926401106316
C           -1.81472674016419       -0.18660464205062       -0.04767520941599
O           -3.01337405759941       -0.38061563739568       -0.07128398860460
N           -0.92504191596483       -1.27951400609911       -0.03692681092919
C           -1.45885520033504       -2.62443890502329       -0.06066604747065
H            3.71577180186384        1.26590853556607        1.06917640208425
H            4.01240429080047        1.09812557790206       -0.68120409346591
H            2.65844942220479        2.10575904300259       -0.08832281215805
H            3.56269750349392       -1.99452573869725        0.04694273452271
H           -1.69075585412862        3.08915415105634       -0.02451271193247
H           -2.84531505817401        2.09203947229239       -0.95226535818891
H           -2.89798566292771        2.07462452664643        0.81428975719728
H           -1.15561210823157       -3.17811996542507        0.83087489130671
H           -1.12897293460596       -3.15704446852433       -0.95564061432576
H           -2.54523215048175       -2.54308678779567       -0.07630169475530
H            1.33178239284063       -2.92766068089321       -0.01083511569855
25
 energy: 3.003592704189 xtb: 6.6.1 (8d0f1dd)
C            3.24480827823072        1.20019634033090        0.08578684202074
N            2.38369461810243        0.05496788073115        0.03013894610111
C            2.68283336840989       -1.34290545740606        0.03271242751357
N            1.43153627655074       -1.92798509587874       -0.00365608646162
C            0.42487577393224       -1.03520729073483       -0.00904762536399
C            0.97501925144165        0.23789938552242        0.01360112899259
C            0.13400487229881        1.40121253112738       -0.00069281948094
O            0.47064874055372        2.58588303600035       -0.00182493243637
N           -1.26688802665481        1.05928669689079       -0.03012977571733
C           -2.23916830898791        2.14848206538136       -0.04893390614503
C           -1.81460179282119       -0.18564807767291       -0.04792667221217
O           -3.01330716290121       -0.38182328523275       -0.07136179352943
N           -0.92178808192852       -1.27537708310337       -0.03727277807218
C           -1.45541801125593       -2.62110902783174       -0.06033818744110
H            3.71544206227989        1.27749231203076        1.06956825075096
H            4.01412645762676        1.11452203878622       -0.68092150859437
H            2.64869952568504        2.10576457716904       -0.08692801584433
H            3.55499431855710       -2.08044400273646        0.04824419461847
H           -1.69606245057483        3.08987116888757       -0.02443647809301
H           -2.85088393366295        2.09264006956246       -0.95122497662847
H           -2.90276947483210        2.07515589606618        0.81436860440758
H           -1.15199846563629       -3.17473502542489        0.83119799346268
H           -1.12571048495700       -3.15423519443635       -0.95503416221432
H           -2.54184093949728       -2.54023014115938       -0.07578466695283
H            1.33286554153668       -2.92519302635193       -0.01157650715851
25
 energy: 7.861005375789 xtb: 6.6.1 (8d0f1dd)
C            3.24334101655589        1.20596071624909        0.08511019226206
N            2.39294949599050        0.04957672477597        0.02900653631337
C            2.69877601928465       -1.36401429787865        0.03389140066935
N            1.43596630843562       -1.92579335056623       -0.00382858898014
C            0.43008668897323       -1.03210615826288       -0.00790890427950
C            0.98024740983021        0.24033728181929        0.01552580682939
C            0.13293594568514        1.40436048911906        0.00313932472520
O            0.46252632357798        2.59012445691886        0.00017710231212
N           -1.26804203103599        1.06080804482814       -0.02935153744851
C           -2.24328839642653        2.14826286569535       -0.04872348221060
C           -1.81366685753064       -0.18501319510720       -0.04837469650536
O           -3.01246198012522       -0.38381606475632       -0.07352437911762
N           -0.91847530366970       -1.27192481628281       -0.03691117799189
C           -1.45374001561490       -2.61753342086122       -0.06066724370229
H            3.71428332178437        1.29092070243238        1.06841851142430
H            4.01377105412925        1.13045052019606       -0.68169491798712
H            2.63732709324201        2.10583004018637       -0.08769472768453
H            3.55790006654896       -2.15977630512519        0.04600588349094
H           -1.70139516832847        3.09037068534103       -0.02385290079617
H           -2.85530629788042        2.09223228508314       -0.95102516377688
H           -2.90802868918919        2.07433092386329        0.81387533899408
H           -1.15213817037332       -3.17194938136164        0.83092619314936
H           -1.12426298577398       -3.15109210955278       -0.95509366465248
H           -2.54011541343648       -2.53558001607283       -0.07713185209544
H            1.33530065335496       -2.92122668214816       -0.01058947166468
25
 energy: 13.796121939665 xtb: 6.6.1 (8d0f1dd)
C            3.24004158153780        1.21329772418258        0.08548879751582
N            2.39377257921300        0.05358444078743        0.02749720875588
C            2.70901556354272       -1.36923499248221        0.02521364637711
N            1.44032891285866       -1.92035927671804       -0.00603673032026
C            0.43220840742509       -1.02791521548939       -0.00727342365935
C            0.97916714744569        0.24523023364655        0.01678455678770
C            0.12982070824954        1.41018260519693        0.00440507592407
O            0.45623602099518        2.59597909539638        0.00173713865738
N           -1.27027727001476        1.06485223927714       -0.02946868566323
C           -2.24966872564366        2.14885376654770       -0.04927454603970
C           -1.81316980583909       -0.18286471990549       -0.04882909276106
O           -3.01118737684857       -0.38431492231863       -0.07519391088809
N           -0.91615890547649       -1.26782552719292       -0.03622015977136
C           -1.45038050357090       -2.61357265758579       -0.05927397558078
H            3.71228357927549        1.30095714708380        1.06875619914750
H            4.01288521211607        1.14543017038498       -0.68058567187082
H            2.62533712358816        2.10700531152601       -0.08686069900687
H            3.58876528606001       -2.22045801640999        0.04620903033966
H           -1.71156913233351        3.09315552873270       -0.02417078856003
H           -2.86232738043888        2.09122367064395       -0.95106267034391
H           -2.91527588589820        2.07277548137645        0.81246225057608
H           -1.14910399055252       -3.16682005424234        0.83331791377294
H           -1.11859711803415       -3.14686754307695       -0.95304999719228
H           -2.53661886688702       -2.53044357222450       -0.07747125598121
H            1.33889741992196       -2.91500132419039       -0.01258447544321
25
 energy: 21.110962852098 xtb: 6.6.1 (8d0f1dd)
C            3.23548091881247        1.22061540755744        0.08109275655243
N            2.39196474775643        0.05990982018635        0.02428806729397
C            2.71524545470745       -1.36850875012131        0.00205856027656
N            1.44412267515517       -1.91430514211086       -0.00623059031902
C            0.43245764654154       -1.02382033908797       -0.00630373991133
C            0.97600931757575        0.25035888465082        0.01897635769576
C            0.12565554867068        1.41597579171755        0.00524564332455
O            0.44934569207572        2.60176013022880        0.00341962835820
N           -1.27274847318295        1.06810655050985       -0.02866653610597
C           -2.25544634928591        2.15029591266268       -0.04682320560432
C           -1.81316112775709       -0.18188357674042       -0.04956710485743
O           -3.01011729675821       -0.38534847985729       -0.07411930196120
N           -0.91455387999905       -1.26483331226148       -0.03787097383990
C           -1.44745665074939       -2.61035248916711       -0.06271492210595
H            3.70869980666311        1.31083739321542        1.06421148449955
H            4.00976294601860        1.15773510365861       -0.68496810024075
H            2.61422555284110        2.10885613124116       -0.09137398920477
H            3.62452616025185       -2.28096208335645        0.06655017185158
H           -1.72048614636931        3.09626312552932       -0.02138273556540
H           -2.86871056106885        2.09238217687803       -0.94799378834941
H           -2.92262529566053        2.07338232905348        0.81365813719123
H           -1.14549514747058       -3.16189655683207        0.83046190557491
H           -1.11428377497273       -3.14326021554072       -0.95629350148446
H           -2.53351101408137       -2.52555334609958       -0.08143612289916
H            1.34529775824528       -2.90865479749945       -0.01128583669072
25
 energy: 46.717962154204 xtb: 6.6.1 (8d0f1dd)
C            3.21894683740015        1.24361284638665        0.08134184045583
N            2.33900425218621        0.10045374909818        0.01819467231448
C            2.65362063090854       -1.22060062392288       -0.03884403192709
N            1.46072720820164       -1.86545871228508       -0.01665758788125
C            0.41380984031384       -0.99749155182421       -0.00259631550994
C            0.94838159507434        0.27379349202510        0.02707888889262
C            0.08931019107877        1.44205960237124        0.00814844221726
O            0.42655898903239        2.60790818856102        0.00055970111877
N           -1.27843027659822        1.08098743058302       -0.03020736087023
C           -2.26654617684492        2.15530379723268       -0.04892800496605
C           -1.82077008152581       -0.18595892267868       -0.04799769396854
O           -3.01510591367729       -0.37952228928705       -0.07527880737218
N           -0.92200237101325       -1.25497557898163       -0.03446334156737
C           -1.44750042341712       -2.60683187828199       -0.05966680222261
H            3.69493072546958        1.31712947949704        1.06374947613489
H            3.99888915062750        1.16448035422845       -0.67685095280850
H            2.61621377462113        2.13936569495313       -0.09012175242759
H            3.87837039297895       -2.70078967417850        0.10369292742011
H           -1.72991838379365        3.10017594227493       -0.02404166682568
H           -2.87798465161175        2.09122512751116       -0.94955282575285
H           -2.92918117895388        2.07225241552779        0.81331255472082
H           -1.14174351470427       -3.15844130923595        0.83121290191397
H           -1.11422404273416       -3.13664225628100       -0.95400259615953
H           -2.53348702045993       -2.52626071672281       -0.07604537490176
H            1.38500119292908       -2.86960943333825       -0.01612867374534
25
 energy: 46.596647280048 xtb: 6.6.1 (8d0f1dd)
C            3.21513688371641        1.25399967022777        0.08061065529086
N            2.33135237848502        0.11289961927391        0.01685954689377
C            2.65129689668378       -1.20407063972489       -0.03081751321728
N            1.46149425377160       -1.85492280920661       -0.01542549206465
C            0.40986115130880       -0.99099348582216       -0.00245674182806
C            0.94146881834999        0.28130760723925        0.02500996173722
C            0.08051595520933        1.44768190252285        0.00518364763953
O            0.41616289019896        2.61288911735137        0.00105583311387
N           -1.28446875429889        1.08433522173353       -0.02853536393351
C           -2.27363235971000        2.15739332842975       -0.04849456400968
C           -1.82534298645924       -0.18503343090547       -0.04676812829156
O           -3.01931274251511       -0.37939440627949       -0.07585325073951
N           -0.92480383530606       -1.25082683683349       -0.03123612496977
C           -1.44630094198765       -2.60375152268559       -0.05990006892902
H            3.69337590064142        1.32723418284657        1.06205732786487
H            3.99518209850789        1.17717527818193       -0.67833757358851
H            2.61600208045519        2.15183550191552       -0.08885960167924
H            3.93759938950669       -2.79605908262090        0.10503040566288
H           -1.73717056672221        3.10267842620330       -0.02349182946960
H           -2.88495248902386        2.09210489941949       -0.94916098211309
H           -2.93663029904722        2.07316985211290        0.81337533777199
H           -1.14063889326615       -3.15481034498129        0.83122260402751
H           -1.10984514478355       -3.13206641012242       -0.95398760431740
H           -2.53236351731968       -2.52521520367474       -0.07849816210952
H            1.39268474518514       -2.85986927436660       -0.01559191821037
25
 energy: 47.022172897559 xtb: 6.6.1 (8d0f1dd)
C            3.21087122672089        1.26521770158019        0.08035108686731
N            2.32359149644201        0.12647126278299        0.01858497725166
C            2.64899907491312       -1.18763465547680       -0.02543143173796
N            1.46194876225190       -1.84455271518270       -0.01191277791685
C            0.40626557254462       -0.98466172108657       -0.00061013596455
C            0.93419972588048        0.28903058347687        0.02518365400853
C            0.07221812088056        1.45307143908180        0.00062790263838
O            0.40634961157534        2.61896065563781        0.00100495304932
N           -1.29065740315478        1.08772537002980       -0.02987360521507
C           -2.28049399535088        2.15967594149714       -0.04936450529845
C           -1.82962641059620       -0.18351745574337       -0.04754599708493
O           -3.02331873993551       -0.37924949550756       -0.07713689111579
N           -0.92755970161201       -1.24659380924715       -0.03011749951373
C           -1.44470772505837       -2.60097361982804       -0.06050051293444
H            3.69054515344925        1.34149509231123        1.06088480557254
H            3.99138811144705        1.18787078736399       -0.67863791543283
H            2.61546080370668        2.16444134826639       -0.09093018363971
H            3.99047161669310       -2.89477578294691        0.10947970319376
H           -1.74410104518715        3.10523897688943       -0.02264139768837
H           -2.89180501433842        2.09494554228137       -0.95026148237081
H           -2.94314310944028        2.07530181434268        0.81279680513054
H           -1.13695172443957       -3.15082097218286        0.83053522175281
H           -1.10608306744891       -3.12792736110937       -0.95474605375456
H           -2.53166330229401       -2.52833822082599       -0.07815733017376
H            1.39978523276482       -2.85006370697730       -0.01618439885664
25
 energy: 47.807739017569 xtb: 6.6.1 (8d0f1dd)
C            3.20419329422418        1.27641271970219        0.08146489640542
N            2.31416187533030        0.14020456085006        0.01940135942281
C            2.64617977273425       -1.17083432127515       -0.01589998634226
N            1.46200669719677       -1.83442039423624       -0.00834777323668
C            0.40200116939964       -0.97910330060031       -0.00038178723926
C            0.92569041027825        0.29590817148188        0.02345467197979
C            0.06380817083678        1.45749209843553       -0.00197455621768
O            0.39739699638563        2.62376264318557        0.00138561836912
N           -1.29688394362177        1.09077101741393       -0.03105577714615
C           -2.28731244585110        2.16160844265672       -0.05037775077208
C           -1.83409578304115       -0.18215486214786       -0.04792087339818
O           -3.02769113007737       -0.37848289128347       -0.07664627763782
N           -0.93112742175744       -1.24340661358105       -0.03067270543180
C           -1.44361851066739       -2.59854830915282       -0.05992918599253
H            3.68518764086338        1.35062243554163        1.06136553166879
H            3.98361084731929        1.19902437322561       -0.67782979209620
H            2.61439306845308        2.17862190795301       -0.09014034724088
H            4.05396016880084       -2.99588444402580        0.11153356655472
H           -1.75202408088350        3.10813205150074       -0.02328777528274
H           -2.89798398780960        2.09518186728895       -0.95178151629623
H           -2.94981199276914        2.07566715082290        0.81177847704255
H           -1.13315036086176       -3.14622719621390        0.83143747747136
H           -1.10333198755778       -3.12378464169514       -0.95448001996314
H           -2.53109677618000       -2.53146894353740       -0.07665567857897
H            1.40674018227649       -2.84047463447926       -0.01745617473539
25
 energy: 48.739998984838 xtb: 6.6.1 (8d0f1dd)
C            3.19659527058530        1.28676359237714        0.08176093832212
N            2.30327663051981        0.15381260178870        0.02232082322811
C            2.64228136516211       -1.15311907827058       -0.00128631899420
N            1.46099091254808       -1.82423257683721       -0.00364659094753
C            0.39679827033303       -0.97390442724131        0.00060948300135
C            0.91618209175450        0.30236318637725        0.02317468847287
C            0.05427097393597        1.46069269120926       -0.00147636843785
O            0.38696141094125        2.62748901344146        0.00179998294843
N           -1.30414695106705        1.09266002491471       -0.03149894869168
C           -2.29428360092097        2.16290606741604       -0.04876645391033
C           -1.83926061136326       -0.18150955069086       -0.04837234659409
O           -3.03281998570736       -0.37791025927185       -0.07662902133812
N           -0.93586590978293       -1.24116951149232       -0.03235914159557
C           -1.44435040734764       -2.59722720407892       -0.05997425674222
H            3.67771953736102        1.35977179343529        1.06103121804821
H            3.97322657894283        1.20480380882268       -0.67824301963375
H            2.61362636858506        2.19180235402833       -0.09247112386995
H            4.12584799157074       -3.09755458955199        0.10893126981141
H           -1.75927456126671        3.10957899628647       -0.02364093957773
H           -2.90521760201326        2.09580091953571       -0.94936313598966
H           -2.95454604364422        2.07538476877589        0.81533759926339
H           -1.13117754076926       -3.14210102436248        0.83184667184825
H           -1.10175345196568       -3.12013539577309       -0.95466192423513
H           -2.53188045111561       -2.53472844602204       -0.07784134309497
H            1.41321993274838       -2.83071205485833       -0.01923790800119
25
 energy: 49.683564748850 xtb: 6.6.1 (8d0f1dd)
C            3.18861246998816        1.29501333311875        0.08207614301521
N            2.29118441113110        0.16680109159964        0.02537574070524
C            2.63773253250977       -1.13510750526894        0.00844364606469
N            1.45878001827254       -1.81464417897210       -0.00067560583641
C            0.39117172517044       -0.96923679179736        0.00046421852507
C            0.90606451054297        0.30837640631705        0.02196040233527
C            0.04443762365776        1.46333147061990        0.00022410886949
O            0.37655998834056        2.63059444445154        0.00309148325598
N           -1.31181115228250        1.09387515729189       -0.03046148522775
C           -2.30090324888848        2.16445356047100       -0.04948857372199
C           -1.84457033636684       -0.18142731972606       -0.04836827511767
O           -3.03813942231266       -0.37746029250094       -0.07684011110287
N           -0.94079907655348       -1.23994387165905       -0.03342886175789
C           -1.44539347702844       -2.59724917913033       -0.05888896460565
H            3.66831075094127        1.36362935532332        1.06143811054454
H            3.96233076606429        1.20455163436505       -0.67758295883255
H            2.61555348409575        2.20423400483098       -0.09633740628145
H            4.20463643163252       -3.19824058886810        0.09858706772236
H           -1.76634412141526        3.11141780264760       -0.02484191356947
H           -2.90886370084717        2.09775869830447       -0.95266109545098
H           -2.96225620016137        2.07765030508451        0.81291280932565
H           -1.13082589147181       -3.13924967826014        0.83414475320951
H           -1.09953921174847       -3.11789527402119       -0.95283093344795
H           -2.53318730865728       -2.53782642651243       -0.07878732194324
H            1.41939642303047       -2.82138565635468       -0.01967288601101
25
 energy: 50.519813439772 xtb: 6.6.1 (8d0f1dd)
C            3.18196626243949        1.30086546407861        0.07885177782855
N            2.27832572788976        0.17922299403680        0.02788439231520
C            2.63217182493263       -1.11673949654874        0.01406763320224
N            1.45532809814308       -1.80746081979866        0.00009935069539
C            0.38532664299291       -0.96531724720242       -0.00237064444381
C            0.89560691092044        0.31404884251909        0.01904241829879
C            0.03524322653652        1.46623508932761       -0.00142022526931
O            0.36754612037469        2.63404892958301        0.00069814905828
N           -1.31903621288746        1.09548996071218       -0.03054400044029
C           -2.30695476319105        2.16668075244529       -0.04952199388267
C           -1.84886319091103       -0.18057756213714       -0.04905775001170
O           -3.04257797355441       -0.37682820719202       -0.07704842398091
N           -0.94590163935996       -1.23929098535972       -0.03534504581673
C           -1.44767139448250       -2.59779881538142       -0.06059051156759
H            3.65880031294053        1.36426970967811        1.05885238309445
H            3.95787489495386        1.19388839674327       -0.67678509930715
H            2.62029081193608        2.21652543773294       -0.09898695881436
H            4.28802007308113       -3.29499919151512        0.08161704789943
H           -1.77228739454952        3.11342567809728       -0.02557150060500
H           -2.91574518831436        2.10097785436347       -0.95124240609809
H           -2.96523560359794        2.08205695331457        0.81551808117468
H           -1.12860190870639       -3.13936696711684        0.83116111541826
H           -1.09915357582500       -3.11693178391333       -0.95499563121572
H           -2.53565521581327       -2.54128318948904       -0.07708153179556
H            1.42636920052905       -2.81321830701642       -0.01655504915044
25
 energy: 51.262262903982 xtb: 6.6.1 (8d0f1dd)
C            3.17591218293866        1.30469979646009        0.08038518793688
N            2.26602320248762        0.18946891805951        0.03142768283284
C            2.62799917929805       -1.10096503168960        0.02179635083046
N            1.45265996929768       -1.80304301105125        0.00133013135233
C            0.38213010515538       -0.96360186918812       -0.00655052306271
C            0.88625755926802        0.31826304559450        0.01609910451420
C            0.02859164076399        1.46871040289605       -0.00290460694979
O            0.36723114908256        2.63553635005310       -0.00130148382936
N           -1.32406533934131        1.09802878083489       -0.03123208930066
C           -2.31144200454052        2.16878937044976       -0.04862193890286
C           -1.85074572020738       -0.17884330876381       -0.04940791503942
O           -3.04456526959889       -0.37572648554640       -0.07535008571939
N           -0.94922652980955       -1.23866386308482       -0.03820327592398
C           -1.44973578658417       -2.59724860456010       -0.06160489127078
H            3.65395039856253        1.35783102026341        1.05970174544748
H            3.95068981053798        1.18323649170132       -0.67513574107002
H            2.62453487540513        2.22676475746662       -0.09681164351870
H            4.38070964898952       -3.38282671205143        0.06115664602504
H           -1.77643798226080        3.11529020916603       -0.02311147958979
H           -2.91772956697736        2.10240125782379       -0.95168450612386
H           -2.96834750868655        2.08242925116500        0.81634509653190
H           -1.12946045399002       -3.13914445894487        0.82983666547745
H           -1.10157024396620       -3.11881427555776       -0.95479910494695
H           -2.53741265840698       -2.54137098399548       -0.07782736563479
H            1.42708038865481       -2.80869399205179       -0.01031503972462
25
 energy: 51.620259420039 xtb: 6.6.1 (8d0f1dd)
C            3.17366449800979        1.30264444541414        0.08231501472875
N            2.26122319487530        0.18887813429299        0.03798200111721
C            2.61942059122017       -1.10216753687487        0.03129066718448
N            1.44596641825474       -1.80585882695016        0.00324895831484
C            0.37762539318718       -0.96469831796202       -0.00769924093516
C            0.88266296243172        0.31752608771513        0.01555380709342
C            0.02753946299013        1.46880073495338       -0.00357739940896
O            0.36984788744473        2.63438320502628       -0.00020997257258
N           -1.32582803521682        1.09932122699206       -0.03181576317565
C           -2.31178722378559        2.17106544040159       -0.04928509289675
C           -1.85296812789013       -0.17769029709023       -0.04990262399206
O           -3.04640805950227       -0.37501845959530       -0.07527467894784
N           -0.95242108451947       -1.23905052287599       -0.03816178012065
C           -1.45205828615561       -2.59771474953505       -0.06118042566998
H            3.65464684103612        1.35722953420145        1.06023336726089
H            3.94589577259312        1.17633623705311       -0.67525473786750
H            2.62453984906106        2.22600771710133       -0.09578070506964
H            4.48670451772215       -3.38313093385020        0.05589628351535
H           -1.77647749191371        3.11785313403600       -0.02353031359823
H           -2.91807642211817        2.10443589743720       -0.95229603806198
H           -2.96968606945876        2.08423753511589        0.81494645077837
H           -1.13156151591560       -3.13916274747013        0.83056709490753
H           -1.10347189866644       -3.11956174181413       -0.95416423712765
H           -2.53970612419052       -2.54293686357549       -0.07791339939395
H            1.42292725547932       -2.81269954340294       -0.00895332386774
