25
 energy: 56.541672666112 xtb: 6.6.1 (8d0f1dd)
C            5.00035942060518        1.12398434045319        0.17702093687927
N            1.96000047690870        0.32328377770712       -0.03870693855359
C            2.30747804852040       -0.92614517803364        0.01150066761807
N            1.22292135573545       -1.76065899557545        0.00931273639170
C            0.13071524105706       -0.94918422140902       -0.02916906589026
C            0.59938806868365        0.35756838386063       -0.04800777062104
C           -0.33646393947617        1.46397359976776       -0.05917760156857
O           -0.08163673879093        2.63992180168305       -0.04784251557207
N           -1.66771077944387        1.00935620327207       -0.07158435598767
C           -2.71166602977567        2.01092152064788       -0.07647443603630
C           -2.13810566798772       -0.28674119924354       -0.07328062503860
O           -3.31694646138410       -0.55129537474676       -0.08732870936190
N           -1.18394906042334       -1.29696381446500       -0.05842538480412
C           -1.61937640460983       -2.67060002366912       -0.06622787204962
H            5.50579037083358        1.14083192820237        1.12962875474306
H            5.70050303678552        1.23402595293086       -0.65524142574942
H            3.60377105594656        1.11511197258765        0.09016373605956
H            3.31821644589148       -1.28112927814650        0.04572721345550
H           -2.28129302367040        3.00524150985242       -0.06881714165652
H           -3.33985533235846        1.87629058569180       -0.96019670253864
H           -3.35071837300302        1.86726646180434        0.79797935645378
H           -1.26114753980250       -3.17547447892292        0.83012487012292
H           -1.25658742264566       -3.18187277580005       -0.95912169935398
H           -2.70811859077813       -2.65084057365475       -0.07339399884860
H            1.23952845695620       -2.76686440334610        0.02600804529340
