25
 energy: 40.059633471527 xtb: 6.6.1 (8d0f1dd)
C            4.54039101293605        0.99865515790890        0.13567617436778
N            2.16462139571898        0.26798246092204       -0.03102841826047
C            2.42364180821097       -0.98839106065075        0.01351562829691
N            1.29834802883303       -1.76199697989009        0.01454648312669
C            0.24644862504804       -0.89378338809183       -0.02156343772704
C            0.78370366752538        0.39592077177674       -0.03382400864831
C           -0.16329006733610        1.50463603000788       -0.04988119634532
O            0.04399201645790        2.69207079883961       -0.06121291715235
N           -1.50937658549465        1.02558209525305       -0.06404548808880
C           -2.52982904831951        2.05412624970378       -0.06627620627554
C           -2.01380901026507       -0.25272098333150       -0.06935122373478
O           -3.19171507197106       -0.51715042876350       -0.09062092826598
N           -1.07258920291271       -1.26878950699789       -0.03930078836507
C           -1.56575234343253       -2.64690918266358       -0.05585164701463
H            4.95260737520973        0.84793421308803        1.07462403019674
H            5.16038005692005        0.96613824677118       -0.72058266295015
H            3.66923441665653        1.58108101041596        0.13845336240581
H            3.39708100256654       -1.42837083492554        0.05822295895151
H           -2.04181480846216        3.01713044559739       -0.05691854919834
H           -3.15642943303503        1.97192220975725       -0.95490629387010
H           -3.17588444037971        1.95435944721991        0.80803543301549
H           -1.25308223676801       -3.19204782243711        0.83613677425230
H           -1.23337869847507       -3.17666184129010       -0.95126329256943
H           -2.66035095428209       -2.61799120417130       -0.06753432724744
H            1.21401028992806       -2.77171800887229        0.01797445873076
