25
 energy: -3.288687652502 xtb: 6.6.1 (8d0f1dd)
C            3.43156516580273        1.13107521541105        0.10054251650199
N            2.36388636516513        0.14615935314653        0.04483246362038
C            2.59897029701057       -1.22241484061390        0.05625365526813
N            1.40336627653840       -1.90173732234566        0.00523269519750
C            0.39862418380620       -1.00578865138853       -0.01015928240251
C            0.94005756283585        0.28290862226261        0.01305811012518
C            0.07866690898157        1.41100566962832       -0.01662091028498
O            0.41192830491951        2.59860131712142       -0.01414258640296
N           -1.30597414693355        1.04355825311292       -0.03659576106959
C           -2.27666958834343        2.12402352122502       -0.05286543524846
C           -1.84874080306648       -0.20111216391952       -0.05213602841796
O           -3.04531670966675       -0.40163041620384       -0.07289053662182
N           -0.94639555448354       -1.27410264256792       -0.04135700444817
C           -1.48284617183198       -2.61719248225338       -0.06159358765874
H            3.94829098545607        1.16651472849252        1.06285170046155
H            4.20149366134508        1.00629134034110       -0.67494582069969
H            2.94030192015276        2.08391654920095       -0.02589462354398
H            3.55138381400680       -1.69523880960976        0.05612967536614
H           -1.72960930814941        3.05847558872739       -0.03029607661202
H           -2.88815436413298        2.06514066174204       -0.95433376454264
H           -2.93482226153977        2.04856155901979        0.81346716949224
H           -1.18873135700852       -3.17352826386036        0.83095134008127
H           -1.16442903436662       -3.15874839819051       -0.95522060006939
H           -2.57257843511762       -2.52378666333258       -0.07623401902598
H            1.33105115684133       -2.90921510113263       -0.01060563399338
