25
 energy: 35.946754293018 xtb: 6.6.1 (8d0f1dd)
C            4.79229142964971        1.03050707893980        0.14759582829387
N            2.05199616657425        0.31966856568008       -0.05724758351979
C            2.35448713106190       -0.93011974136148        0.00523785506327
N            1.25382137948212       -1.73436997006670        0.01305017054441
C            0.17362065718272       -0.90493758308865       -0.02474452413117
C            0.68164770550934        0.38967591258718       -0.04509232466311
C           -0.26118311793158        1.49667165348438       -0.05584047103094
O           -0.05406655349259        2.68148931634976       -0.04587206651099
N           -1.59487749621761        1.02040702233779       -0.07055857594407
C           -2.62369823275683        2.03750689701992       -0.07134375765791
C           -2.08263781702895       -0.27034016803840       -0.07088494768220
O           -3.25952135858167       -0.54006570122976       -0.08960013012386
N           -1.13780065614411       -1.28961371041922       -0.04226726490911
C           -1.61129920784509       -2.67224699968825       -0.06272378383519
H            5.25765991604831        0.95288990861435        1.08953908289160
H            5.44521921848267        1.08767357114013       -0.70333351095697
H            3.67500646510620        1.20418804025605        0.08620257135261
H            3.34308445610758       -1.33853415493323        0.05013208921204
H           -2.16207671076162        3.01667337490438       -0.06414551442098
H           -3.24879576510659        1.92659072303768       -0.95742132192545
H           -3.26342261349355        1.91089729265502        0.80291601527881
H           -1.28086942503255       -3.20631313579731        0.82927056747857
H           -1.27149827898836       -3.19872290239338       -0.95803015252012
H           -2.70608965684407       -2.66399048451470       -0.07293359548817
H            1.21770405637680       -2.73729976263543        0.03842613973166
