25
 energy: 110.143362455668 xtb: 6.6.1 (8d0f1dd)
C            5.41079526120086        1.35490625703323        0.16430676429035
N            1.97627426262339        0.26858169076864        0.03991910964295
C            2.36449885069650       -1.04575379862548        0.02330900866821
N            1.21827840327076       -1.79727805778352       -0.00841666533441
C            0.15309903534150       -0.96437013037080       -0.04015733741997
C            0.59518952203333        0.34727309652863       -0.02737231817044
C           -0.28413661004254        1.48056989856508       -0.05105205939224
O            0.02863420519739        2.67077213750921       -0.05377515859519
N           -1.64699063553216        1.03756659895844       -0.06881331490959
C           -2.70989447914777        2.03534473732535       -0.06980809225986
C           -2.11017024339659       -0.24349267066881       -0.07682139292394
O           -3.29307404796951       -0.51970660333097       -0.08449440185286
N           -1.16074107863402       -1.28012407830448       -0.07347531774340
C           -1.61392750638018       -2.65160244037564       -0.06924605588609
H            5.93112108529919        1.44054680140530        1.11691799181969
H            6.09340920793100        1.29608941218143       -0.67686327133106
H            2.64557008335254        1.03843616842942        0.05055403862608
H            3.36423237908826       -1.41134477579439        0.06912361504076
H           -2.25725179011808        3.02059397912630       -0.05325737817861
H           -3.33517631262374        1.92442044663121       -0.95920124144508
H           -3.35580583675205        1.90073950315852        0.80189968829784
H           -1.27441108953542       -3.17852408377406        0.82633566129407
H           -1.25958657442295       -3.17505435287522       -0.95958117853531
H           -2.70223271897734       -2.62311426455377       -0.07498342169877
H            1.20036823368754       -2.80225857165217        0.00838047943279
