25
 energy: -5.925405075819 xtb: 6.6.1 (8d0f1dd)
C            3.33610946618421        1.15264162775603        0.09469066454794
N            2.33614162483889        0.11952660235342        0.03876636319830
C            2.60653669429899       -1.23927846181057        0.04044003973536
N            1.41383402295976       -1.92375132784912        0.00211868223509
C            0.40106790441908       -1.03505037629146       -0.00930645976371
C            0.93281113272657        0.25176498470587        0.01399929314920
C            0.09972752523398        1.39749018740661       -0.01074820480123
O            0.45862010720307        2.57881137484811       -0.00838298498123
N           -1.28471911417588        1.04704335491954       -0.03343963071345
C           -2.24726383757928        2.13616163207844       -0.05136261546484
C           -1.83077637880144       -0.19824968912303       -0.04906449776279
O           -3.02863021249760       -0.39096660334948       -0.07119968526552
N           -0.94120177960620       -1.28748656996429       -0.03864400533795
C           -1.47693852270929       -2.62924896247684       -0.06067094611853
H            3.83300585676364        1.20106537944529        1.06773783018664
H            4.10704547395609        1.02648138276146       -0.67290009757192
H            2.81536781240343        2.08823438527398       -0.06167939332839
H            3.57335328448628       -1.67817888976833        0.04413909995853
H           -1.69358096453094        3.06928080315982       -0.02772040701970
H           -2.85635659992148        2.08042002164431       -0.95430682621596
H           -2.90628799872878        2.06394815328399        0.81429786794848
H           -1.17567633663537       -3.18184774656117        0.83137772059235
H           -1.15192964684538       -3.16373406064301       -0.95565409154312
H           -2.56445070797754       -2.53926798026819       -0.07496134158367
H            1.35086432649807       -2.92915972826237       -0.01277812632071
