25
 energy: 108.761534377205 xtb: 6.6.1 (8d0f1dd)
C            5.54931753600949        1.18085038516244        0.22152045076428
N            1.93829019400632        0.31422535690962        0.00201233536416
C            2.33822956206867       -0.98279319026661        0.01633129804166
N            1.21619086074827       -1.76836635154469       -0.00006771928203
C            0.12501673433461       -0.97020952668912       -0.03204258182464
C            0.55738398234128        0.34836364235696       -0.03208587860421
C           -0.34094113030879        1.44853009874904       -0.04655562754854
O           -0.05910042077663        2.63642240954578       -0.04154881536566
N           -1.69251464937964        1.00733677609773       -0.06601176459014
C           -2.71870386060546        2.03798388725679       -0.06859523379096
C           -2.15183147118077       -0.27721823523688       -0.07034917684423
O           -3.33092212361469       -0.55027568084299       -0.08521565460155
N           -1.19088515628911       -1.31193522377586       -0.05569175037806
C           -1.63720311381329       -2.68918215619209       -0.06621803265567
H            6.10060294818494        1.41704953540540        1.15361911165846
H            6.24330838494584        1.33172183544086       -0.63289379797318
H            2.53888805626239        1.10960717083116        0.01133668365697
H            3.34969336402016       -1.30677311163949        0.05201190354047
H           -2.21023995322385        3.00222638300840       -0.05219668420137
H           -3.33350862798175        1.94862474895215       -0.96285553773740
H           -3.35479471495546        1.93016796720855        0.80805171856345
H           -1.29785407725154       -3.21544779869920        0.82817928655866
H           -1.28082438409729       -3.20615478022370       -0.95958065876265
H           -2.72742968990119       -2.67652604115417       -0.07669975987954
H            1.23845684296073       -2.77437898391431        0.01409392803808
