25
 energy: 44.665906714630 xtb: 6.6.1 (8d0f1dd)
C            4.15767065868156        1.07786665735056        0.12794704507132
N            2.29401771374908        0.20026933301064       -0.03424662625582
C            2.48689964242234       -1.07779814554372        0.01971612710132
N            1.33468205613683       -1.81265531335706        0.01884460885994
C            0.31781071609253       -0.90736196698269       -0.01503707854058
C            0.88439899184362        0.37128407730779       -0.01475188245154
C           -0.06012917784364        1.48251847789873       -0.04000658555339
O            0.17685734216017        2.66688415000512       -0.04167947640987
N           -1.42294800819630        1.03025010132649       -0.05549520265074
C           -2.43235811321125        2.07165021515549       -0.06288382194636
C           -1.94803866343145       -0.23387059754000       -0.06691237291447
O           -3.13261177282221       -0.47329146275609       -0.08554290605478
N           -1.01380836598624       -1.25219609826452       -0.04159392628166
C           -1.52692922047696       -2.61977622302724       -0.05128648332921
H            4.60991779274104        0.99279312010096        1.06767922373135
H            4.80165750328218        0.98383101225609       -0.71817309449784
H            3.54072655328070        1.93750502111590        0.14126735139114
H            3.44959279118839       -1.54113195713902        0.05871364920199
H           -1.91977148305053        3.01687873946734       -0.04937679839748
H           -3.05299573380254        2.00016174323696       -0.95690192899533
H           -3.08436212216027        1.98335799429162        0.80784396118442
H           -1.22106160052476       -3.16071739736085        0.84441521658424
H           -1.20748614599640       -3.15154736898286       -0.94796456206012
H           -2.62039100274929       -2.57160702194700       -0.06287351197566
H            1.24207952424447       -2.82335348418394        0.00704270735084
