25
 energy: 1.600242297192 xtb: 6.6.1 (8d0f1dd)
C            3.52675976891335        1.11043424442876        0.10554753443911
N            2.39078369760201        0.17532335793514        0.05062907703534
C            2.58719610096878       -1.19950623237505        0.05682801245871
N            1.39367925623305       -1.87829984116501        0.00699800417481
C            0.39474878593699       -0.97698140530576       -0.01039812299106
C            0.94425294608859        0.31495474006459        0.01264375060395
C            0.05617567561790        1.42500135405352       -0.02276516988384
O            0.36413088974545        2.61812406168328       -0.02054957968805
N           -1.32843013724084        1.04008428057434       -0.04025740882428
C           -2.30661680873192        2.11238245181841       -0.05465318847971
C           -1.86667303138061       -0.20551323534892       -0.05558927373858
O           -3.06164294081458       -0.41510264905225       -0.07505702591345
N           -0.95299588371090       -1.26320857795758       -0.04447992105181
C           -1.49227120121232       -2.60863865594370       -0.06185516866325
H            4.06295524410659        1.12666115990723        1.05628026678315
H            4.29410004220688        0.99761091445725       -0.68212661367531
H            3.06113809638490        2.07726672178317        0.01866191380140
H            3.53577574755495       -1.67571659979583        0.06009813997456
H           -1.76582203993805        3.04830219411251       -0.03349141956331
H           -2.92035971581529        2.05048388147668       -0.95462466166410
H           -2.96344217853213        2.03360731852553        0.81266076309346
H           -1.20393998060246       -3.16879605970222        0.83103992323289
H           -1.17895213569600       -3.15706510763806       -0.95406078340852
H           -2.58432652057299       -2.51231567288070       -0.07522969875463
H            1.31348623381229       -2.88749870121260       -0.00942338060253
