25
 energy: 108.842962313856 xtb: 6.6.1 (8d0f1dd)
C            5.56813529849434        1.09513676099969        0.22237541351953
N            1.94481057163150        0.31327983605345       -0.00212639799300
C            2.34069946730040       -0.98782047826274        0.02031382914314
N            1.21808569357018       -1.77146809006809        0.00109414037459
C            0.12802976112668       -0.97055915217249       -0.03270631126156
C            0.56083773459754        0.34730847370974       -0.03402430321959
C           -0.33272208539874        1.45386295360539       -0.04861411651400
O           -0.03912359801337        2.64053931147006       -0.04341720695944
N           -1.68565127184844        1.01609991455783       -0.06691264371821
C           -2.71484958605927        2.04454517519057       -0.06937387287915
C           -2.14488843149193       -0.26927250150146       -0.07134725013287
O           -3.32450849990712       -0.54182567339802       -0.08497625247843
N           -1.18714009060071       -1.30521058794653       -0.05826028023411
C           -1.63388337180210       -2.68041684513802       -0.06663953099154
H            6.06941046205230        1.42001879547502        1.15525333092687
H            6.20111673266915        1.35039395062242       -0.65035275033073
H            2.55634871083912        1.11088674588003        0.00991381445914
H            3.34902412891076       -1.32540951296803        0.05140753300154
H           -2.21887795779526        3.01291811681978       -0.05221914547287
H           -3.33136897935372        1.95041788900637       -0.96285859442218
H           -3.35328474672051        1.92972539492981        0.80617624561728
H           -1.29179468787717       -3.20443118126025        0.82787195020837
H           -1.27745431821782       -3.19736245608694       -0.95978890614482
H           -2.72341971990410       -2.66405512689213       -0.07540766135693
H            1.23468308876885       -2.77827292388120        0.01165287904879
