25
 energy: 38.072437196025 xtb: 6.6.1 (8d0f1dd)
C            4.64170369800447        1.00163500865514        0.13997319440959
N            2.12536488102546        0.29351145135723       -0.04450881090352
C            2.40322299101018       -0.95947798348697        0.00796821730826
N            1.28769548991071       -1.74441649949348        0.01345246235204
C            0.22202947096235       -0.89362322903238       -0.02261151895500
C            0.74833513613524        0.39953990770310       -0.03916574983787
C           -0.19732093353595        1.50980355495682       -0.05478735025021
O            0.00147486668393        2.69990675278988       -0.06317528052154
N           -1.53744521359618        1.02706059485487       -0.06686489917087
C           -2.56222427024862        2.04971930995945       -0.06759011828431
C           -2.03624148510847       -0.25657783666693       -0.06899341063677
O           -3.21390008553759       -0.52221137498035       -0.08879471315226
N           -1.09377088776478       -1.27527848076389       -0.03874860622767
C           -1.58050654667929       -2.65564999021707       -0.05776928938815
H            5.06669356458750        0.84439456413124        1.07537225430572
H            5.26562801076614        1.00809944819808       -0.71811341034319
H            3.66530610458439        1.42754515620942        0.11586093563584
H            3.37525044494185       -1.40324433333877        0.05875855759890
H           -2.08338949968274        3.01906303754044       -0.05884301174896
H           -3.18924073012059        1.95886780758260       -0.95486871000608
H           -3.20580168479215        1.94072896874839        0.80720262641738
H           -1.26578776081790       -3.20076243648864        0.83268023568403
H           -1.24513119974525       -3.18455511894681       -0.95272253245068
H           -2.67494596507051       -2.63371991804240       -0.06897835808322
H            1.22506989412614       -2.75477559395609        0.02249782785719
