25
 energy: 110.339550008781 xtb: 6.6.1 (8d0f1dd)
C            5.42596119531107        1.19996654077778        0.18311684143880
N            1.94952749852014        0.25688935366175        0.06705031814127
C            2.35501610325140       -1.04035001951578        0.02471001840118
N            1.21493087889551       -1.80105519822098       -0.01842771139907
C            0.14888031973578       -0.96931805435264       -0.04729648643726
C            0.58541738298919        0.34352339654473       -0.02246467008866
C           -0.28504970864292        1.47675670010835       -0.05279612427439
O            0.01603642131529        2.66463031248935       -0.05161310801868
N           -1.64625506932413        1.03665741508355       -0.07085150379379
C           -2.72189140063330        2.02875048178297       -0.06857863202557
C           -2.11293431809901       -0.24707482183428       -0.07502025037443
O           -3.29505875061661       -0.51177443412265       -0.08139759755599
N           -1.16822309611550       -1.29051037223683       -0.07173677137887
C           -1.62352075062917       -2.66347027685290       -0.06887554892634
H            5.92649740248029        1.37814248466535        1.14579977016535
H            6.14037788021491        1.22024199686075       -0.65664687826113
H            2.55219707551319        1.04852085113950        0.04769475587912
H            3.36292962852824       -1.37494964255213        0.06671051091475
H           -2.28587321208494        3.02267602089845       -0.05318244887896
H           -3.35625626526307        1.90185666196021       -0.95088413844695
H           -3.36792126139749        1.87767824776808        0.80277594593631
H           -1.28519057852098       -3.19041607025900        0.82716211582039
H           -1.26929375522449       -3.18644087035571       -0.95944471655625
H           -2.71249844588902       -2.64041229855600       -0.07554639751308
H            1.19464777767502       -2.80456026404163        0.00652560560516
