25
 energy: 110.373362862446 xtb: 6.6.1 (8d0f1dd)
C            5.33857564567397        1.33094920603071        0.16553151307391
N            2.00041398518605        0.29964662450155        0.01287947898403
C            2.36135581337240       -1.02271309032483        0.02247257309040
N            1.22263537000767       -1.78101648806666       -0.00009454817843
C            0.15263575414387       -0.95423028411733       -0.03541716508638
C            0.60602333068859        0.35827940416253       -0.03973962446746
C           -0.30190897924425        1.47213893772423       -0.05294735259252
O            0.00158723249200        2.66247748092816       -0.05195651969848
N           -1.66516433150291        1.02922272255797       -0.06834810885842
C           -2.71849000674921        2.03568955939700       -0.06999948207712
C           -2.12164359191419       -0.25167603667769       -0.07598763626717
O           -3.30265029614202       -0.53761235449761       -0.08654430758421
N           -1.15999931517217       -1.27481945335213       -0.07034458770445
C           -1.60605489316373       -2.64290431504907       -0.06866232543427
H            5.80882074482166        1.42035775320805        1.13992800929424
H            6.02087035516860        1.36834495395719       -0.66826145947911
H            2.74467662511582        1.03498328038717        0.05097931088081
H            3.35785256151054       -1.39589710740125        0.06481519908078
H           -2.23160574467131        3.00660743216283       -0.05213211653449
H           -3.33714337196918        1.93809302255273       -0.96219187346442
H           -3.35880024920913        1.91775062344934        0.80590278314383
H           -1.26369644592185       -3.16644530986290        0.82687449419917
H           -1.24997156083413       -3.16241886945511       -0.95998223676452
H           -2.69371847187107       -2.60687264087978       -0.07407141847959
H            1.22142378478881       -2.78793030662234        0.00967329983510
