25
 energy: 41.921361692439 xtb: 6.6.1 (8d0f1dd)
C            4.41021963400027        1.01385428167351        0.13065207153379
N            2.20412084716437        0.24321877093193       -0.02189535384488
C            2.44406046497167       -1.01762517506506        0.01730072395697
N            1.31071685197212       -1.77966913039416        0.01532265376876
C            0.27072984798560       -0.89605907195416       -0.02079785163378
C            0.81855594402183        0.38942430768741       -0.02935233503497
C           -0.13040059526935        1.49660244450482       -0.04535722863886
O            0.08478470804944        2.68000544553077       -0.05607291216995
N           -1.48068498458278        1.02547998548653       -0.06081009595696
C           -2.49732563428307        2.05828795355891       -0.06513919524456
C           -1.99197346660490       -0.24811664405951       -0.06861903814652
O           -3.17180166057696       -0.50472782427090       -0.08960681139036
N           -1.05226699526751       -1.26326743002426       -0.04049251208732
C           -1.55178302651555       -2.63839043391382       -0.05443211997577
H            4.83635521042647        0.88930846147801        1.06975024248061
H            5.04076722039742        0.95439987613776       -0.71901040212516
H            3.62880972834518        1.71455302124979        0.14536788200045
H            3.41596976359837       -1.46063727375654        0.05826109059655
H           -1.99991576872541        3.01363082598860       -0.05510020745187
H           -3.12188330305272        1.98173179691796       -0.95563493528640
H           -3.14507616472685        1.96486049243037        0.80830024432718
H           -1.24061991030416       -3.18270710306935        0.83864498243876
H           -1.22179888649435       -3.16894522163038       -0.94992422051119
H           -2.64632737501816       -2.60336951577410       -0.06613474069705
H            1.21924006396903       -2.78989749993506        0.01277549676338
