25
 energy: 42.447667826011 xtb: 6.6.1 (8d0f1dd)
C            4.94204895430194        1.07080814854497        0.17478872821819
N            1.98858614880393        0.32944176876936       -0.04825742250872
C            2.31579334204491       -0.91984853637136        0.01010992269853
N            1.23262723815651       -1.75270325010007        0.01212414548498
C            0.14325760607334       -0.93614194524088       -0.02616075438528
C            0.62438041042498        0.36637195084409       -0.04711692006692
C           -0.30741655449675        1.47584809039691       -0.05740291570416
O           -0.03452570059750        2.64779688534897       -0.04281521142660
N           -1.64138333064263        1.01815210574581       -0.07107024824930
C           -2.68069783981252        2.02173456185528       -0.07475610980026
C           -2.11954527901390       -0.28132469096255       -0.07224926903791
O           -3.29802019857035       -0.54543606446464       -0.08913294849184
N           -1.17138902606811       -1.29684864300665       -0.05163284807121
C           -1.61988912353696       -2.67527818907025       -0.06521267535883
H            5.43840192698094        1.05629634017975        1.12034623050848
H            5.61826116572266        1.18856802340454       -0.66843540528828
H            3.68522811385038        1.11566289876438        0.09377433469007
H            3.32424073240996       -1.27761812541159        0.04289636709911
H           -2.24108851556010        3.01320710093825       -0.06939824923257
H           -3.30807744559477        1.89271591193993       -0.95875656799631
H           -3.31934176867457        1.88170746048901        0.79944399328787
H           -1.26915342275091       -3.18880160361226        0.82954609126496
H           -1.26238269287282       -3.19051941402284       -0.95862179442463
H           -2.71060547700990       -2.66309943667608       -0.07414948320612
H            1.22701930825368       -2.75664465686735        0.03419622802067
