25
 energy: 37.206247443794 xtb: 6.6.1 (8d0f1dd)
C            4.86082396833489        1.06641945263284        0.16016229895837
N            2.01930122621074        0.31967391603806       -0.06272634226638
C            2.33308684735814       -0.93183172785069       -0.00112911438765
N            1.24097974294805       -1.74649414120663        0.01263201311178
C            0.15694562992847       -0.92476698705540       -0.02446262766066
C            0.65216437315984        0.37375083074377       -0.04820659924481
C           -0.28570806262006        1.48240127369427       -0.05696370579273
O           -0.04924637968269        2.66083489808731       -0.04445510162655
N           -1.61888945956378        1.01863677628409       -0.07061176365755
C           -2.65088473699407        2.03025788943357       -0.07256135720136
C           -2.10175500369648       -0.27725052712710       -0.07163054230842
O           -3.27942109018582       -0.54552215547882       -0.09065470166378
N           -1.15702664556957       -1.29636971142109       -0.04528408799145
C           -1.62016727575029       -2.67922686196356       -0.06513967323566
H            5.34992604355047        1.00688320290275        1.10201995216798
H            5.52620696722145        1.13830596851689       -0.68845733001821
H            3.68265227807931        1.13328291047713        0.08036391765312
H            3.32908381955864       -1.31490713478148        0.04281048049988
H           -2.19866205344281        3.01543695625661       -0.06664935316204
H           -3.27690254802859        1.91127869357971       -0.95749712940561
H           -3.28964884136085        1.89767275126628        0.80173055716903
H           -1.27520110108378       -3.19934423586987        0.82877888578067
H           -1.26591367333410       -3.19729996371826       -0.95876990180308
H           -2.71290932421643       -2.67409096539874       -0.07553637623779
H            1.23209678467684       -2.74902773232074        0.03830348472188
