25
 energy: 79.858784628144 xtb: 6.6.1 (8d0f1dd)
C            5.06901424002435        1.14953138015559        0.18148576595219
N            1.94912988353792        0.30779850498914       -0.02897105628138
C            2.30917578694175       -0.94391173830037        0.01518235117387
N            1.22039453188607       -1.77489111090261        0.00653053665868
C            0.13097657625946       -0.96531224703141       -0.03109689481197
C            0.58987838088853        0.34290957291892       -0.04762537763064
C           -0.32967348504827        1.45671398293612       -0.05224090215155
O           -0.05573053982297        2.63157523779222       -0.04314484552147
N           -1.66541369923986        1.01326126432317       -0.06510734063596
C           -2.71567713369186        2.01794370498107       -0.07445003403085
C           -2.13437369038179       -0.27840823646741       -0.07185549289241
O           -3.31617659774400       -0.53933215261651       -0.08643083980521
N           -1.18125161793353       -1.29204818030576       -0.05966344241612
C           -1.61351766963993       -2.66058229490719       -0.06777159905985
H            5.60336418232097        1.19880254752434        1.12982111950731
H            5.77837383499261        1.30327969031326       -0.64090051129613
H            3.46570782577733        1.13960444408001        0.08301803529106
H            3.31921405276606       -1.30668502312320        0.05341592106823
H           -2.26928590116911        3.00728586571710       -0.06317246095422
H           -3.33529551350996        1.89406738815403       -0.96381665065201
H           -3.35299552130205        1.88178125193528        0.80035912967123
H           -1.24970053904781       -3.15847079062432        0.83060864286998
H           -1.24298216039149       -3.16473065443197       -0.96156117445819
H           -2.70105298644465       -2.63263389787131       -0.07571830829524
H            1.24409121329604       -2.78144251119679        0.01842425030116
