25
 energy: 110.341948355273 xtb: 6.6.1 (8d0f1dd)
C            5.28259444111508        1.23594391597848        0.16893171887539
N            2.01369305530994        0.33227408516838       -0.00564298577981
C            2.35262587137437       -0.99261349330446        0.02166554422414
N            1.22548212713785       -1.76203482449697        0.00490455961985
C            0.14960375820374       -0.94589772187412       -0.03466191011779
C            0.60370025053644        0.37282787485658       -0.04681768071249
C           -0.31958425668087        1.46394155974664       -0.05320883175553
O           -0.03196667672418        2.65382308822005       -0.04800106049868
N           -1.67843157773985        1.01697425822605       -0.06844624502755
C           -2.72019528677722        2.02901188711871       -0.07351233144049
C           -2.13439599210376       -0.26369492075147       -0.07430187652990
O           -3.31501602377668       -0.54908200951247       -0.08568697333226
N           -1.16455473488642       -1.27722783649067       -0.06510424208238
C           -1.60349183611986       -2.64447655002128       -0.06821020969519
H            5.77797181412249        1.29834335993164        1.14170716313598
H            6.01383021811937        1.36350832342647       -0.63437837893821
H            2.83460905435991        1.02669579599631        0.05310192745843
H            3.34870841622383       -1.36321292950872        0.05899240947944
H           -2.23445640915433        3.00416003624939       -0.05738693582084
H           -3.33574688279973        1.92360855432693       -0.96522700210491
H           -3.35321237193269        1.90789389005010        0.80489672410385
H           -1.25265581668176       -3.15758167763841        0.82804233651235
H           -1.24320510288183       -3.15687946073472       -0.96104066573748
H           -2.69135571866373       -2.60823033261992       -0.07403335424768
H            1.24052719219013       -2.77040767049973        0.01342471099166
