25
 energy: 36.340664009282 xtb: 6.6.1 (8d0f1dd)
C            4.73081223860442        1.00450202122444        0.14522209055220
N            2.08780774517816        0.31188013261194       -0.05367341618212
C            2.38130993021787       -0.93808561453251        0.00227568539974
N            1.27289857944729       -1.73527254736922        0.01125916890882
C            0.19747162327215       -0.89661118332746       -0.02368691857315
C            0.71392999222789        0.39827423657091       -0.04273483758870
C           -0.23162010458065        1.50675304948053       -0.05790751830733
O           -0.03818353712140        2.69629587854913       -0.06220043732275
N           -1.56757874665571        1.02316108458611       -0.06920374948902
C           -2.59413377521742        2.04347877414878       -0.06907429382436
C           -2.06015529124037       -0.26247240182012       -0.06927896150171
O           -3.23693530901115       -0.53210537251581       -0.08907940140244
N           -1.11542498895647       -1.28266322901454       -0.03867969912326
C           -1.59645489464679       -2.66442644338398       -0.05988714299531
H            5.16950568432368        0.88518649786699        1.08464086010835
H            5.36497142815013        1.04949903734423       -0.71069980891590
H            3.68016205040089        1.27828257820736        0.10047151661828
H            3.36260649229780       -1.36449549500468        0.05152989005019
H           -2.12362156278420        3.01768104007443       -0.06155827056434
H           -3.22086338299738        1.94274497689165       -0.95512927025627
H           -3.23494852899276        1.92599068088567        0.80614199197907
H           -1.28230027033890       -3.20917517210473        0.83064267359466
H           -1.25830083229365       -3.19264833343198       -0.95440855146109
H           -2.69065983042321       -2.64937637463497       -0.07137204343987
H            1.22028795021784       -2.74266404377351        0.02761356154404
