  72
        -99.35806105
 N         -1.8509012762        2.9615525875        2.3341278481
 C         -1.8207937802        2.2677638454        1.2966031188
 C         -2.9793285346        2.0847709135        0.3552781010
 C         -3.4507524178        0.6393645152        0.4014329624
 C         -4.3848538104        0.1860857361       -0.5323481975
 C         -4.8644194299       -1.1128050971       -0.5052960257
 O         -5.7741644141       -1.6252820645       -1.3588133820
 C         -6.3904497393       -0.7787842754       -2.3006159787
 C         -4.3880061806       -2.0144680973        0.4850647116
 O         -4.9031368776       -3.2584936367        0.4318872609
 C         -4.5497361761       -4.1905670507        1.4271806464
 C         -3.4608880555       -1.5583229830        1.4084610035
 C         -3.0020303696       -0.2473611403        1.3680257516
 C         -2.4373452671        2.4237311086       -1.0585197672
 C         -1.5235550179        1.3459077351       -1.6712883946
 C         -0.1866369082        1.2768780709       -1.0414127378
 N          0.4431851461        0.1664890211       -0.6895199124
 C          1.8054983177        0.2088438397       -0.2105815474
 C          2.8031009616       -0.3607557678       -1.2356806624
 C          4.2033919578       -0.2272549185       -0.7038480730
 C          5.0770776131        0.7213711488       -1.2149627395
 C          6.3585545551        0.8624928136       -0.7142239145
 C          6.7904243663        0.0501696958        0.3341420919
 O          8.0076283257        0.1037772315        0.9066237155
 C          8.9613684479        1.0214145572        0.4195185408
 C          5.9078415908       -0.9036938668        0.8585847804
 O          6.7078961286       -3.0033462841       -0.9871428947
 C          7.1832270253       -4.0433587333       -0.6302286372
 C          4.6405361404       -1.0390386380        0.3413247283
 C         -0.1844222564       -1.1310524467       -0.7720831729
 C         -4.1933041437        3.0019901848        0.6907859536
 C         -4.8075656552        2.6441596709        2.0421029051
 C         -3.8509363844        4.4887930239        0.6577453127
 H         -4.7544839394        0.8653479926       -1.2823565437
 H         -6.9006098693        0.0578467907       -1.8139008112
 H         -7.1237671951       -1.3981312097       -2.8132618273
 H         -5.6700581351       -0.3954234776       -3.0306035459
 H         -4.8190958126       -3.8324429391        2.4251298523
 H         -5.1194632879       -5.0895296998        1.2004353645
 H         -3.4804143671       -4.4231378183        1.3981633647
 H         -3.0955680687       -2.2141093154        2.1819896158
 H         -2.3061791462        0.0795205893        2.1252095707
 H         -3.2823826787        2.5691156117       -1.7305320668
 H         -1.8914334354        3.3665497107       -1.0080867389
 H         -2.0291466134        0.3821532443       -1.6517298801
 H         -1.3736236521        1.6242569397       -2.7224054839
 H         -0.9150572236        1.7454181446        0.9328518552
 H          0.3795330286        2.1949277144       -0.9782168213
 H          1.8743606152       -0.3653962661        0.7179672544
 H          2.0779305471        1.2434314894        0.0076687571
 H          2.7043874242        0.1877702936       -2.1736560994
 H          2.5791212637       -1.4116172275       -1.4260128264
 H          4.7609877150        1.3575784154       -2.0292297865
 H          7.0118076184        1.6021298741       -1.1484692815
 H          8.6183055272        2.0539906308        0.5358118174
 H          9.1988977167        0.8302712436       -0.6309057670
 H          9.8527889572        0.8686414929        1.0250718869
 H          8.1816265679       -4.1183198700       -0.1703387369
 H          6.2517395159       -1.5309995898        1.6659799843
 H          6.6526409004       -5.0048735070       -0.7320749363
 H          3.9835982208       -1.7958567162        0.7442760479
 H         -0.3581155225       -1.4180228455       -1.8110068232
 H         -1.1408005194       -1.1283663558       -0.2428215281
 H          0.4635513599       -1.8722964935       -0.3120720609
 H         -4.9474687264        2.8117120711       -0.0813982865
 H         -4.0977435869        2.8438654866        2.8382921474
 H         -5.0946713060        1.5960959215        2.0790438754
 H         -5.6952899024        3.2482198979        2.2097706941
 H         -3.0815666153        4.7154268897        1.3893050364
 H         -3.5169114890        4.8076628928       -0.3260204470
 H         -4.7381694121        5.0635910177        0.9098916018
 H         -0.9994448405        3.0382881289        2.8814465908
