25
 energy: -42.145009677391 gnorm: 0.002611499195 xtb: 6.6.1 (8d0f1dd)
C            4.08094268544089        0.80633907957674       -0.02219861379173
N            3.03372760958426       -0.17390596028520       -0.03066239501737
C            3.15840605728359       -1.48347184040351       -0.11617181997862
N            1.96330051867696       -2.08252722350939       -0.08670549815673
C            0.93242433980215       -1.12227088393602        0.02912368460150
C            1.66686245845827        0.14583504612963        0.06396132031005
C            1.15453102115726        1.36519903303902        0.16486752696196
O            0.64150273938672        2.39746222516540        0.25333171296500
N           -3.62859378483670        1.28287278761706       -0.02180402151822
C           -3.90448222954258        2.65888655666686       -0.00359103143418
C           -3.96999388036892        0.14747371893555       -0.03904368128202
O           -4.08991942437516       -1.00495036943459       -0.05607270427818
N           -0.31287352678913       -1.27190954431091        0.08909642136374
C           -1.00859949387878       -2.51679822247169        0.05475209121008
H            4.10641326537398        1.32441263297772        0.93899025778092
H            5.04004284976247        0.32067304021075       -0.19061412228729
H            3.91030316239626        1.54443026668397       -0.80801523435317
H            4.09750388825482       -1.99919517090608       -0.19933071378413
H           -2.95181641167634        3.18839998418547        0.02422083218938
H           -4.45423096432632        2.95523331227053       -0.89972835213137
H           -4.48864077889007        2.92438176779002        0.88089033394673
H           -0.74560537622034       -3.14705741642277        0.90894769502310
H           -0.80710971631643       -3.06950797722390       -0.86695691656740
H           -2.07386644807626       -2.29386144668582        0.10121889917029
H            1.81020295381854       -3.07790485406166       -0.13733405304204
