72
 energy: -99.336855010276 gnorm: 0.009144466881 xtb: 6.6.1 (8d0f1dd)
N           -1.90000387156206        2.79537142141163        2.23961713971419
C           -1.85963849654725        2.11289222702543        1.19358875133863
C           -3.01897267014803        1.92161871077511        0.25242150458178
C           -3.51038794119797        0.49017859922640        0.35300202397189
C           -4.55848677230928        0.05513145903740       -0.62838879104217
C           -4.85546831079642       -1.41196400390588       -0.59049456053716
O           -5.55676430057403       -1.98292917400915       -1.55748782574902
C           -6.11169589014531       -1.36793502124318       -2.56517821312346
C           -4.42728529960366       -2.22606702212080        0.48415284540075
O           -4.90687644199902       -3.48959263069663        0.48064442750932
C           -4.62564433912883       -4.32456957649829        1.58348543818049
C           -3.56332348251498       -1.69782045661498        1.42462401189947
C           -3.09047133501771       -0.36787641476547        1.31142947010894
C           -2.46647759695116        2.20318466525607       -1.17130988483040
C           -1.53422831603431        1.11109696186199       -1.72834815512634
C           -0.19401149793158        1.09737376071017       -1.09889572909826
N            0.46840446429109        0.00056497253861       -0.73400047427331
C            1.85009271955204        0.08436750030721       -0.32667765138545
C            2.81246220423273       -0.33734083227695       -1.45385994282196
C            4.23209594011907       -0.14118426074120       -1.00119161530856
C            4.87327938492592        1.07038093712283       -1.19673857832433
C            6.16880610614202        1.26909858915793       -0.74438989624233
C            6.84735422748498        0.25803761333577       -0.08039189760720
O            8.10226898714861        0.33936719474174        0.40273104656398
C            8.82759669454230        1.53455031920460        0.22883526436924
C            6.19681307372765       -0.98894096826287        0.12650073447379
O            6.92952620660602       -1.91678174377033        0.77671148050335
C            6.37994103701732       -3.19217428106501        1.00328665597432
C            4.90172484278355       -1.16406831835162       -0.33337238700869
C           -0.12808352349586       -1.31154259026652       -0.79952766953560
C           -4.21021557203612        2.88594928031431        0.54713642544437
C           -4.87033979996012        2.56266878957031        1.88557235370704
C           -3.81482447284594        4.35947473887759        0.51507126902431
H           -5.48683259630137        0.61741562773193       -0.43427987553482
H           -6.15135465855247       -0.29013339824369       -2.64871203803727
H           -6.55877653267770       -2.00991506257397       -3.31082617446615
H           -4.25681782172052        0.32653082434490       -1.65107572978117
H           -4.96792076998234       -3.87505179736529        2.52041445806556
H           -5.17804284302968       -5.24415281705368        1.40159543558161
H           -3.55730595698256       -4.55131515093404        1.65436486166443
H           -3.22218638123810       -2.28993919024048        2.25537698207782
H           -2.37403204199249       -0.04000617558089        2.05002806653901
H           -3.30648983777184        2.32224725107779       -1.85594140109446
H           -1.92631531557455        3.15002596144200       -1.15417789100497
H           -2.00817467859434        0.13479319970445       -1.65065216985277
H           -1.39621712828896        1.33083581705663       -2.79582820632864
H           -0.94986612523435        1.60243534620133        0.82341392448520
H            0.35715521294637        2.02502591859956       -1.07316439746017
H            2.00731230556384       -0.55826203644085        0.54389256077433
H            2.07807518675801        1.11214580772760       -0.03700794650682
H            2.61295269128127        0.27633382941732       -2.33392793609475
H            2.63867162488558       -1.38220064399655       -1.71371081671415
H            4.36930362717792        1.87106652264594       -1.71660218670210
H            6.64414845270857        2.22034975131059       -0.91850245708576
H            8.33777298945725        2.37684558112299        0.72707638965409
H            8.96770017142718        1.76766507781985       -0.83098738661373
H            9.79705944747294        1.35711321522015        0.69032927361328
H            7.15478910277339       -3.75670331314327        1.51827383030004
H            5.48978908697800       -3.13917527639157        1.63867037951588
H            6.13039982188962       -3.69494767309917        0.06363769803779
H            4.40128333095719       -2.10859620042931       -0.18716700251850
H           -0.29916911860288       -1.61819688095790       -1.83418718399293
H           -1.08122810802323       -1.32586526398208       -0.26520993177120
H            0.53916401758861       -2.03131324299593       -0.33253638526850
H           -4.94525197432219        2.72624227402547       -0.25055689303928
H           -4.17037794727859        2.74657023845158        2.69372744309647
H           -5.19188003064639        1.52520636028383        1.93363967043242
H           -5.74007863974038        3.19871467223539        2.02725010983558
H           -3.06623128178171        4.56717953802841        1.27275004052830
H           -3.43458369878508        4.65711843411601       -0.45842172708213
H           -4.69136330699170        4.96561488647371        0.72859196341122
H           -1.04573063654632        2.87191706497462        2.78314992115831
