25
 energy: 103.715836707494 xtb: 6.6.1 (8d0f1dd)
C            3.32108557643034        1.19216164895101        0.03846397538540
N            2.37183282861501        0.10619719393451        0.04189616089273
C            2.70799823533922       -1.17759964501768        0.02135544067778
N            1.59465623808089       -1.93410168574006        0.06943621891863
C            0.45782718693973       -1.08346623521311        0.10742111032716
C            1.01247934394088        0.23068318465187        0.08895132027436
C            0.25785261159363        1.49754555043253        0.08956964035805
O            0.82555276177772        2.60117260852357        0.02374218182640
N           -1.03815917375233        1.26814131516423        0.17860914231286
C           -2.02663914728705        2.28135095702512        0.17985679991815
C           -3.84059903812119       -1.19493073190551       -1.38826467415093
O           -4.15618813972554       -0.12117722195937       -1.23566056751399
N           -0.77846099664094       -1.38047058699976        0.14257432300785
C           -1.32194205870233       -2.69530139995213        0.17943132196686
H            3.81154568760630        1.26424290861220        1.01089220597398
H            4.07861568921976        1.02556883762354       -0.72620092646151
H            2.77636658712815        2.12120926630561       -0.15063099543092
H            3.71102464711752       -1.55235521342620       -0.01849085615850
H           -1.61036687853347        3.29374078918089        0.21705560971366
H           -2.64036681477626        2.17874428596160       -0.72113899385207
H           -2.68160991200140        2.11896952839445        1.04155463644103
H           -0.80491605046186       -3.36770769749401        0.87692173064063
H           -1.32598233764903       -3.14494739581283       -0.81907131907622
H           -2.36634490002036       -2.58630137108107        0.48010683644484
H            1.57214757169554       -2.93975728249477        0.04536078585003
