25
 energy: 33.225435340991 xtb: 6.6.1 (8d0f1dd)
C            3.25931751647425        1.17907762375747        0.08424699799477
N            2.26912921736322        0.12725805188421        0.06268559278256
C            2.59124517859044       -1.20216947148045        0.10337673189208
N            1.41670396816914       -1.93546709540130        0.03536142358954
C            0.33373808703569       -1.08605022778084       -0.02897040382164
C            0.88257667233873        0.18946390880301       -0.01043804163281
C            0.02695787199070        1.33687894361514       -0.04359383048914
O            0.48901132240481        2.47591939734473        0.06928528172981
N           -1.37079067689897        1.00272932654862       -0.17520443121796
C           -2.19116847923282        2.18647056709860        0.04594496315158
C           -2.05221015382105       -0.20618916009049       -0.70765684388526
O           -3.22750052684770       -0.35624306602338       -0.95088592619752
N           -1.01639380887858       -1.33059715575882       -0.10852840339582
C           -1.44814946924444       -2.69236953369832        0.07257901172275
H            3.77262651223812        1.24549312772258        1.05207058797456
H            4.03386208014551        0.99832713847480       -0.67034083758823
H            2.75652937467449        2.12383367282956       -0.11685143700631
H            3.59056238772947       -1.57559026455791        0.03199862616102
H           -1.56805075432941        3.08023588947246        0.13143551913943
H           -2.83676162349706        2.29547534780460       -0.81031480835013
H           -2.79651108031491        2.08142591403612        0.94478621685357
H           -0.85708776553781       -3.20497250894342        0.85311253374019
H           -1.37525673556165       -3.26584754255503       -0.85053288390459
H           -2.49682727576712       -2.66441200440988        0.36313243831301
H            1.46014354350361       -2.93851489247060        0.05737885562436
