25
 energy: 104.292544186101 xtb: 6.6.1 (8d0f1dd)
C            3.32317657903327        1.19335852142413        0.04538313397062
N            2.37798911512453        0.10488230780274        0.04335314821811
C            2.71742478116791       -1.17749168941710        0.03144388623309
N            1.60710636906524       -1.93851190782172        0.06372362456826
C            0.47126951536206       -1.09329890863416        0.09526026999172
C            1.01826072147881        0.22867838015149        0.07939411324347
C            0.25717628664699        1.49548672052245        0.07690389098747
O            0.82834588247018        2.59943881138070        0.02599392697235
N           -1.03542539902244        1.24992352074029        0.13387753508861
C           -2.02140309671849        2.26131176292649        0.16703931406916
C           -3.70024296782061       -1.11476378760083       -1.27648993998454
O           -4.29919983603025       -0.16004652266182       -1.24538393673171
N           -0.76241687979273       -1.39651868036238        0.09499417247865
C           -1.31188795596880       -2.70980469317646        0.16863165585915
H            3.80555106436899        1.26331045575005        1.02165756002883
H            4.08073536372731        1.02400360299983       -0.72105618134321
H            2.77300767702319        2.11972814001003       -0.14335927116950
H            3.71479926645825       -1.56380298681982       -0.00819852652347
H           -1.60114537002079        3.27177957164040        0.21797031518602
H           -2.65326394668826        2.18234135191053       -0.72828730300978
H           -2.67411437330276        2.10007434681360        1.03332153594680
H           -0.79313224902446       -3.38687918210352        0.85894309051031
H           -1.33925602415441       -3.16606680226895       -0.82715583329152
H           -2.34413903895122       -2.59015243759481        0.49077711273322
H            1.60597318119052       -2.94300302458305        0.05828623530189
