25
 energy: 89.640856495621 xtb: 6.6.1 (8d0f1dd)
C            3.24768006072078        1.16991147184741        0.08253254731550
N            2.25475297152980        0.10754195490350        0.06147055541387
C            2.58758514793709       -1.17328261547125        0.09195524069661
N            1.46929578881721       -1.93807236490936        0.04649892453006
C            0.32829339640921       -1.10672725954298        0.02196579490689
C            0.88743157393370        0.19184773267400        0.00939472427390
C            0.03123805979138        1.38672169200399       -0.00882599796019
O            0.57198889976554        2.48967911373690        0.10304625546217
N           -1.29906983367785        1.09476383491402       -0.09510391702552
C           -2.15798226203672        2.22171226289683        0.09668006782457
C           -2.28277161558103       -0.27048862695922       -1.14269759323960
O           -3.43297390288393       -0.28165644214752       -1.17726270436901
N           -0.94294906336161       -1.39181583527723        0.01798729130789
C           -1.41524446120910       -2.72391335404590        0.12971908243567
H            3.74976394622141        1.23172236869033        1.05435202390892
H            4.02017761132225        0.98412555444116       -0.66855993923329
H            2.76260673824939        2.12553005800655       -0.11733722405722
H            3.59691463810425       -1.53515341508658        0.02717785643076
H           -1.55761404164846        3.12589692494107        0.18415099844484
H           -2.81897897057671        2.33357994910970       -0.75691514578189
H           -2.77595184214467        2.09031587176209        0.98335057534553
H           -0.77425068842547       -3.26363915396536        0.83682462739196
H           -1.43847151442222       -3.25880575407889       -0.82131293071703
H           -2.44692997094088       -2.68931293088586        0.48665492043853
H            1.50797901726761       -2.94245599825999        0.07244654005937
