25
 energy: 104.994629494356 xtb: 6.6.1 (8d0f1dd)
C            3.29649676295333        1.18439137396637        0.04165358767771
N            2.33194730798051        0.10754056182145        0.03607085883067
C            2.67837741615815       -1.17236695605953        0.01928095648034
N            1.57909748896484       -1.94372919670515        0.04778606066814
C            0.43030955804030       -1.10525100014298        0.11230675283211
C            0.97356182516315        0.21515195938159        0.10220898287024
C            0.20404235298199        1.46309252113676        0.10141945982078
O            0.75297190991632        2.57475577006887        0.03656464930602
N           -1.10634202630473        1.22022361666084        0.13483256074909
C           -2.05359138066922        2.27561340899617        0.19593512682315
C           -3.34097214875134       -0.71025669787460       -1.63151921869266
O           -4.27631203475697       -0.19577117765520       -1.28594839027658
N           -0.78094151487119       -1.45480011701965        0.26075246276152
C           -1.31589858314864       -2.76817766401662        0.21766276195582
H            3.79616044631189        1.25064417771025        1.01012872659792
H            4.05792775563266        1.02058008014040       -0.72669678114431
H            2.76263189912499        2.11811933355404       -0.14302602917660
H            3.69504724603312       -1.52833617261422       -0.00922328883729
H           -1.56087007422915        3.24411171832412        0.26877218682114
H           -2.69928785240983        2.24587566061020       -0.69176950110503
H           -2.67968026594625        2.10442377398960        1.07831004139415
H           -0.73623031140023       -3.46630314859268        0.82295765238169
H           -1.37344338958649       -3.15143553818506       -0.80396421776699
H           -2.31062374179630       -2.67999824774422        0.63943307691411
H            1.57254675250637       -2.95163302923152        0.04812165579869
