25
 energy: -42.485067699941 xtb: 6.6.1 (8d0f1dd)
C            3.21210159677941        0.92600059196544       -0.13838026010868
N            2.33310116590158       -0.05773465478647       -0.11933760625154
C            2.54870426779976       -1.39807395730605       -0.12403491731269
N            1.33357650282173       -2.07662521945483       -0.13395550016016
C            0.35565374207496       -1.15901860513469       -0.09757598097674
C            0.93858207106796        0.10167387541654       -0.09692336835342
C            0.15587190554392        1.29576968588627       -0.04123657394033
O            0.55364788458593        2.43913960262515       -0.02437259859895
N           -1.23037616792920        1.00600725758619       -0.01151759076478
C           -2.15031134934321        2.13554402092549        0.01218970401032
C           -1.82941205722419       -0.22819333457119       -0.02715219842279
O           -3.03140440022771       -0.36517244078221       -0.01452516884336
N           -0.99043393717348       -1.34565546568805       -0.05543968290804
C           -1.57318303436167       -2.66979817859308       -0.06358911257953
H            3.74398514793624        3.45390871733190        1.38701813262153
H            4.25402925765679        0.69206473880163       -0.07452567070077
H            2.86784543115439        1.94254809056561       -0.16515624422952
H            3.49451912059430       -1.87765004840264       -0.24077764681066
H           -1.56184295719655        3.04799579196325        0.05944261988729
H           -2.76535313381212        2.13204680582537       -0.88765098428492
H           -2.80461392330964        2.06157298074844        0.87980335656120
H           -1.27055791462519       -3.23202159246649        0.82195129199175
H           -1.27770770197157       -3.21343389998474       -0.96248810539503
H           -2.65597595206905       -2.54612727041343       -0.05486184374637
H            1.24247967345777       -3.07847149844191       -0.12265363059463
