25
 energy: -42.069200512327 gnorm: 0.009107398482 xtb: 6.6.1 (8d0f1dd)
C            3.29003821798552        1.22213636692926        0.03626663687219
N            2.36793630935149        0.11691757640891        0.00819055983422
C            2.66230322457451       -1.17593765135983       -0.00048270145620
N            1.53136037451086       -1.90774664454818       -0.02790436821812
C            0.47142798778264       -1.04065736931346       -0.02975854651535
C            0.99972911188145        0.24060043906864       -0.01076062004067
C            0.14210402059507        1.40326987592740        0.02199406213619
O            0.49500981409758        2.56420725902265        0.04481306227590
N           -1.20313773161048        1.01411014153861        0.03190832374194
C           -2.13935807025016        2.12320947287298        0.09039841513458
C           -1.72976246867895       -0.22427854022818        0.00289118256079
O           -2.81703675640510       -2.57043788993340        0.05846317319486
N           -0.85407440030493       -1.27435700696580       -0.04216375427525
C           -1.34249818324489       -2.62230003973664        0.05628440809069
H            3.92307384467269        1.16425763895696        0.92157768680583
H            3.92236985678349        1.21337526222021       -0.85145212750065
H            2.71448362362157        2.14760736050220        0.06126264636986
H            3.65367807294845       -1.58380537341392        0.01253028883386
H           -1.91609150458086        2.82835192491993       -0.70978376373640
H           -3.15090890761005        1.74219045732460       -0.00954230446573
H           -2.02724616925644        2.64862130993405        1.03946126565500
H           -3.17515240323751       -2.03647990227476       -0.70315017616259
H           -1.06219223905306       -3.18827276256080       -0.83455041109202
H           -3.06596061328715       -2.07139760187731        0.86350858855519
H            1.47033650281624       -2.91494576181281        0.00117009130080
