  72
        -99.34716367
 N         -1.8099733759        2.9457119307        2.1584463576
 C         -1.9719066981        2.2098624091        1.1599806598
 C         -3.2642526623        2.1002705568        0.3951962565
 C         -3.7317119139        0.6550900571        0.3921090634
 C         -4.7499010542        0.2529776285       -0.4735881507
 C         -5.2191295084       -1.0509045838       -0.4833559222
 O         -6.1938931464       -1.5229338865       -1.2860487175
 C         -6.8508545043       -0.6431840173       -2.1678168802
 C         -4.6556397414       -2.0044641599        0.4091586291
 O         -5.1696386632       -3.2466000528        0.3293127734
 C         -4.7093054420       -4.2385646625        1.2173038300
 C         -3.6527608472       -1.5942045403        1.2746844563
 C         -3.2004095161       -0.2827881705        1.2663602786
 C         -2.9422315759        2.5741395740       -1.0497222699
 C         -2.1615512184        1.5710561172       -1.9066402844
 C         -0.7133492969        1.4555717739       -1.5284651376
 N         -0.0052260137        0.4341992249       -1.3408334331
 C          3.0883322085       -0.4054138942        0.2130783893
 C          3.2587139569       -0.7387782892       -1.2116899751
 C          4.5140120709       -0.4194115517       -0.3733557961
 C          5.1754325300        0.8498686770       -0.5882406146
 C          6.5245330020        0.9836414901       -0.4446881110
 C          7.3343507697       -0.1073765207       -0.0870171581
 O          8.6544065130       -0.0748415698        0.0765246283
 C          9.3644789715        1.1312230574       -0.1078070844
 C          6.7237872138       -1.3926217910        0.1249863753
 O          7.5917258336       -2.3725103183        0.4471116804
 C          7.1033019195       -3.6845742393        0.6117251358
 C          5.3738096884       -1.5345806844       -0.0090036222
 C         -0.4811807334       -0.9134985896       -1.3951312062
 C         -4.4107573492        2.9686338297        0.9935449242
 C         -4.7728740337        2.5160833248        2.4062843102
 C         -4.1011756297        4.4630733652        0.9963920109
 H         -5.1866313823        0.9728207017       -1.1460339323
 H         -7.3391967313        0.1746084137       -1.6293505787
 H         -7.6060874259       -1.2442959005       -2.6703433972
 H         -6.1621925319       -0.2325548431       -2.9131726136
 H         -4.8981042831       -3.9614730278        2.2588009234
 H         -5.2766473087       -5.1347462883        0.9735202729
 H         -3.6416235156       -4.4366181196        1.0793699468
 H         -3.2180913180       -2.2908693343        1.9728021091
 H         -2.4349216326        0.0047331530        1.9698925934
 H         -3.8828262702        2.7953144203       -1.5553896192
 H         -2.3767247837        3.5058227496       -0.9903722174
 H         -2.6452248491        0.5943285072       -1.8916547318
 H         -2.1713478067        1.9335941130       -2.9395072548
 H         -1.1678760341        1.6044079489        0.7170154512
 H         -0.1880321416        2.4060308258       -1.4511194802
 H          2.8578066217       -1.1899458322        0.9165880489
 H          2.6822748029        0.5593155035        0.4687258712
 H          2.9696932389       -0.0082762442       -1.9498492727
 H          3.1495927065       -1.7632389426       -1.5311008586
 H          4.5687983541        1.6968100927       -0.8677064964
 H          6.9795100163        1.9468556468       -0.6128453831
 H          9.0124331430        1.9111387107        0.5732216511
 H          9.2889150444        1.4824437173       -1.1412638393
 H         10.4029955118        0.8942514942        0.1189206937
 H          7.9821674479       -4.3036714925        0.7843686106
 H          6.4317849855       -3.7569466785        1.4741032725
 H          6.5852141788       -4.0302081179       -0.2876496380
 H          4.8962830937       -2.4869991309        0.1530467280
 H         -0.3683527609       -1.2931502857       -2.4129262000
 H         -1.5262351135       -1.0314659968       -1.0894819039
 H          0.1540409011       -1.5087636123       -0.7393778944
 H         -5.2868259140        2.8045784176        0.3543633560
 H         -3.9340845113        2.6810901013        3.0759239003
 H         -5.0402418628        1.4619452752        2.4264538832
 H         -5.6211627737        3.0911132700        2.7683296860
 H         -3.2089928353        4.6593546630        1.5833550008
 H         -3.9629987212        4.8519251956       -0.0087286533
 H         -4.9320206995        4.9977025674        1.4495404282
 H         -0.8872251918        2.9733339585        2.5803730425
