  25
        -42.06358977
 C          3.1318892802        1.6389874913        0.1194433803
 N          2.3646051954        0.4330056367        0.1455679221
 C          1.3909703217       -2.0749629627       -0.8662077287
 N          1.4630965609       -2.1531653657        0.4870909632
 C          0.5712948342       -1.1210067751       -0.0538574052
 C          1.0475083029        0.2708799259        0.0789290008
 C          0.1128941379        1.3827369864        0.0674139700
 O          0.4356898265        2.5511265566        0.1540714632
 N         -1.2330332750        1.0327744747       -0.0668042288
 C         -2.2066312385        2.1144031614       -0.1604522683
 C         -1.7683181027       -0.2159158675       -0.0623255338
 O         -2.9422049625       -0.4433520375       -0.1293574950
 N         -0.8393406062       -1.3223883013        0.0418807288
 C         -1.3867505243       -2.5269073136        0.1513405716
 H          3.7213307118        1.7214531136        1.0339196923
 H          3.8276041970        1.5982734825       -0.7207302385
 H          2.4861043418        2.5091346401        0.0269280201
 H          2.9049284140       -0.4275941795        0.1889480716
 H         -1.6657892311        3.0511136167       -0.2733136584
 H         -2.8595680841        1.9386619164       -1.0150792532
 H         -2.8193575614        2.1458457344        0.7418639510
 H         -0.7889955779       -3.4149604152        0.1969090241
 H          1.1854051025       -2.8013435497       -1.6371634907
 H         -2.4605689097       -2.5808701804        0.1725874394
 H          1.2236744287       -2.9318322267        1.0952437023
