  72
        -99.30608447
 N         -1.7059643604        2.6325633772        2.7538713638
 C         -1.6869298620        2.0314959180        1.6588156979
 C         -2.8127775417        2.0384692509        0.6609335584
 C         -3.3438735120        0.6247568511        0.4916551285
 C         -4.2035078057        0.3275095548       -0.5682069694
 C         -4.7084184189       -0.9483091574       -0.7546211222
 O         -5.5376066655       -1.3191386500       -1.7537642482
 C         -6.0332018321       -0.3387132662       -2.6344770171
 C         -4.3451760564       -1.9834579381        0.1480477295
 O         -4.8659324298       -3.1986527155       -0.1214130704
 C         -4.6057376141       -4.2644995597        0.7613881450
 C         -3.5083688864       -1.6774080031        1.2091268070
 C         -3.0165022610       -0.3886083130        1.3784344848
 C         -2.1910930126        2.5470833920       -0.6676331960
 C         -1.3506957589        1.5092683925       -1.4360177073
 C         -0.0745232526        1.1631048255       -0.7742518374
 N          0.3841407431       -0.0678816485       -0.5730913146
 C          1.7446354771       -0.2805323960       -0.1410860572
 C          2.6362862317       -0.7670790683       -1.3023268824
 C          4.0891516019       -0.7112765263       -0.8981448644
 C          4.7635066037        0.4326172645       -1.1963006032
 C          6.1035794953        0.7223843054       -0.9362829282
 C          7.2660817229        1.0645399544       -0.8714272783
 O          8.5134750575        1.3196025347       -0.6860593864
 C          8.8514516058        2.6162484592       -0.1895826638
 C          5.8146416723       -1.9411271216        0.3720643803
 O          6.3566185697       -2.9477703861        1.0593093576
 C          5.6151111066       -4.1355493677        1.2521974664
 C          4.5945433463       -1.8592813585       -0.1979256649
 C         -0.3872958241       -1.2431315487       -0.8990388832
 C         -4.0004190223        2.9584769166        1.0704606388
 C         -4.6768769598        2.4633378829        2.3464418998
 C         -3.5981182704        4.4215262093        1.2349846097
 H         -4.4887355335        1.1110232531       -1.2504690687
 H         -6.5756547509        0.4453786367       -2.0977385450
 H         -6.7196472123       -0.8618651666       -3.2971788716
 H         -5.2315306447        0.1113312542       -3.2297155587
 H         -4.9705075540       -4.0486803581        1.7699286682
 H         -5.1471998746       -5.1173441398        0.3569312335
 H         -3.5372988151       -4.5006668840        0.8020764996
 H         -3.2361554253       -2.4361316190        1.9246010747
 H         -2.3870863544       -0.1834115945        2.2303411234
 H         -2.9940989549        2.8785273464       -1.3254157680
 H         -1.5674978334        3.4148656529       -0.4484144284
 H         -1.9507442826        0.6237774861       -1.6354924236
 H         -1.1027079209        1.9696785584       -2.4015626676
 H         -0.8149766833        1.4639606439        1.2835143888
 H          0.6002814615        1.9734854654       -0.5410064102
 H          1.7567334186       -1.0134456531        0.6709152086
 H          2.1491885941        0.6589185469        0.2414966951
 H          2.4641308781       -0.1121703915       -2.1612007476
 H          2.3532213931       -1.7829900788       -1.5883001094
 H          4.2182809087        1.2320164037       -1.6863865020
 H          6.5076542013       -1.1121769474        0.3207007429
 H          8.2828682536        2.8404775271        0.7202694141
 H          8.6601110127        3.3877937193       -0.9471176890
 H          9.9187481418        2.5807462791        0.0407565598
 H          6.2450727389       -4.7833094242        1.8590781083
 H          4.6803534072       -3.9338482373        1.7822133235
 H          5.3974150958       -4.6248985303        0.2987730749
 H          3.9138208305       -2.6985132562       -0.1339871427
 H         -0.4712213559       -1.3751260362       -1.9803808812
 H         -1.3893040322       -1.1734332083       -0.4723197286
 H          0.1035376082       -2.1181967843       -0.4800392919
 H         -4.7326220161        2.8962284596        0.2567601898
 H         -3.9890726223        2.5318590994        3.1830723111
 H         -5.0065161165        1.4323979335        2.2421868523
 H         -5.5456017409        3.0800836155        2.5608020962
 H         -2.8483795555        4.5193106308        2.0138093338
 H         -3.2131470100        4.8442927476        0.3108534457
 H         -4.4703995167        4.9999692096        1.5277135726
 H         -0.8747520777        2.5828036281        3.3348922800
