25
 energy: -42.139820605326 gnorm: 0.005380442433 xtb: 6.6.1 (8d0f1dd)
C            3.17901790890410        1.15306012840783        0.51574405103581
N            2.29584458553477        0.09114629300036        0.14346386517163
C            2.63272845842946       -1.23600886761029        0.28112083830460
N            1.60591993536684       -1.95365226763272       -0.10073756484951
C            0.50602094700410       -1.13877480406250       -0.60591693795329
C            1.05502149939677        0.21842160589535       -0.34435224221970
C            0.19288090872483        1.38494552818044       -0.30227886605931
O            0.58157056822577        2.53278166266434       -0.29611452006903
N           -1.14877493376728        1.03880541014045       -0.22584329207845
C           -2.12523284056241        2.11012747289023       -0.19947896766779
C           -1.64885881673952       -0.23246158970564        0.09727163313895
O           -2.79942748869408       -0.36940756248398        0.41829462359778
N           -0.76874972275978       -1.29215047036623        0.04825018128158
C           -1.27748621688634       -2.63222840515269        0.24884686825389
H            3.50862973619198        1.00736788578921        1.54641055911784
H            4.06727292963953        1.12685164365423       -0.11975901623747
H            2.67762867276367        2.11422982979548        0.40426252284623
H            0.38055283739517       -1.36434700099353       -1.68690753524288
H           -1.61988153626597        3.04495296070870       -0.43204040417915
H           -2.90723134237506        1.90299086006749       -0.93166852520372
H           -2.59757066900467        2.17297601284734        0.78292889574957
H           -0.72591470363287       -3.12508453664204        1.05038522258488
H           -1.19521469566837       -3.21856563294251       -0.66884967173592
H           -2.32553727726258       -2.55551784696511        0.53426590312584
H            1.61722277014136       -2.96221976788411       -0.12612600281275
