72
 energy: -99.703301965372 xtb: 6.6.1 (8d0f1dd)
N           -1.59924268008611        2.88357514028007        2.30703837866547
C           -1.56369607891718        2.18046460108863        1.26332663316943
C           -2.70864780359009        2.06235911413691        0.29230508666358
C           -3.28183905685709        0.65363013500250        0.35661294832709
C           -4.25611511442851        0.25805128733947       -0.56329357742943
C           -4.82138207180026       -1.00182790487637       -0.52041483957818
O           -5.78887547223535       -1.45976728463041       -1.36529824488927
C           -6.34783149363868       -0.57345101611599       -2.29985334968124
C           -4.39881662248533       -1.92494220653226        0.46177278172844
O           -5.00819760597742       -3.14406853814401        0.41837528564807
C           -4.68443375852568       -4.09352170879970        1.40068236488196
C           -3.43503670313155       -1.53390924497721        1.37111788106833
C           -2.88805377629910       -0.25611781409058        1.32038643350638
C           -2.12314449692706        2.32226430250590       -1.12188297469625
C           -1.24419238985782        1.18813725960808       -1.68677034777888
C            0.07585496661283        1.10525826546017       -1.02223144907328
N            0.65642419664633       -0.06583144897119       -0.57607942193529
C            2.03434547127821       -0.07577386224452       -0.20282254174911
C            2.96205690532941       -0.64717474188617       -1.29847721674882
C            4.37548965529790       -0.52416815331967       -0.84794730472384
C            5.03358281212091        0.67300657819156       -1.04599510107589
C            6.32211541128462        0.94405089926335       -0.60829158564150
C            6.96766147736197       -0.13879922592544        0.04987048016413
O            8.24315659961497       -0.18597430020840        0.53483771429504
C            9.02649863895174        0.94702101160539        0.30699962032634
C            6.29544485505296       -1.38964353098828        0.27833224899408
O            6.98141217902338       -2.39260624881013        0.93517954910176
C            6.35785994172168       -3.64769003501379        1.16199675906634
C            4.99948010005062       -1.55576933777446       -0.15788421526840
C           -0.01759822647932       -1.32891067056449       -0.67572402783041
C           -3.86083916001665        3.06809994924494        0.57357056359606
C           -4.54461193770013        2.77851453515732        1.90876211581738
C           -3.40495204924872        4.52561012021224        0.53626080500160
H           -4.58010766086168        0.95476104730282       -1.31895635958287
H           -6.79344840327629        0.30092315524727       -1.81332695734228
H           -7.12945233961693       -1.13974723631920       -2.80466839642086
H           -5.61064861733268       -0.24169061615866       -3.03923941389051
H           -4.90900833520074       -3.72753379697967        2.40830515631142
H           -5.31060189009205       -4.95834364790414        1.18527026178276
H           -3.63098777804347       -4.38974817733270        1.34913816098927
H           -3.10111194340686       -2.21256144190290        2.14044241200922
H           -2.15686555460115        0.02294790627466        2.06320655607767
H           -2.94815997939001        2.49539549903546       -1.81527277600333
H           -1.52341422935758        3.23356631372090       -1.08868237582801
H           -1.78194818659907        0.24403437233273       -1.61445801792431
H           -1.10399900465114        1.40637157918900       -2.75754762431992
H           -0.67499596342881        1.62963343070566        0.91800896810332
H            0.72081795083087        1.96532793471487       -1.04572244634423
H            2.15269327905474       -0.67008680547304        0.71157353694724
H            2.35003993613552        0.94611090068559        0.01988639966213
H            2.82182260589782       -0.06490505421512       -2.20886158522881
H            2.69811876517003       -1.68576997889436       -1.49609357464204
H            4.52741550455522        1.46053504588622       -1.57853696864926
H            6.55663706445884        2.02534524493124       -0.89021642263036
H            8.56853699202469        1.81508356635196        0.78750867316996
H            9.12282804995890        1.12585853357437       -0.76780738920256
H           10.00629586950560        0.75022981190383        0.74007207072641
H            7.09494877764970       -4.27778945043836        1.66648803188299
H            5.47683028086104       -3.57825769440115        1.81314073350098
H            6.06486320857425       -4.15450252868557        0.23407685954080
H            4.46568259351806       -2.47917342667449        0.01507345428439
H           -0.17826037386529       -1.64412285700587       -1.71394952204420
H           -0.98719324884336       -1.27204674109543       -0.17493127772514
H            0.58514395113198       -2.08452952641822       -0.17487189672551
H           -4.60356222421795        2.92992699101542       -0.22180288286730
H           -3.83810262724923        2.92176033936640        2.71902947203604
H           -4.91710858727051        1.75737754515231        1.94147713261066
H           -5.38367232993522        3.45683497912224        2.04783145446994
H           -2.63861059529276        4.69548668071848        1.28559601174442
H           -3.01671914222542        4.80035169262033       -0.44126534338277
H           -4.25068669672811        5.17357074886309        0.75597269785136
H           -0.74404390663665        2.88686347012661        2.86051338951406
