25
 energy: 54.330599476048 xtb: 6.6.1 (8d0f1dd)
C            3.43459342165018        0.95332551670055        0.12366911379611
N            2.52952543628914       -0.16103464628547        0.04060153242724
C            2.84587542231146       -1.43812345615058       -0.08655397714441
N            1.71273410223246       -2.18331708745073       -0.10254672733777
C            0.63919520407980       -1.33127188744549        0.02489370387217
C            1.17309740284239       -0.05013102168487        0.11728509291010
C            0.28032163818534        1.13252437370421        0.22613572554666
O            0.73120824277810        2.26706725438578        0.25276302979096
N           -1.01424118863821        0.80607582479889        0.28223944553532
C           -3.61762219644158        3.62860175877257       -0.35736921765581
C           -1.58337005328142       -0.35856372005244        0.20533176307481
O           -2.74877652696347       -0.64184458309607        0.21336202034648
N           -0.65245357687231       -1.59723548102869        0.05734551502702
C           -1.22844666692522       -2.91326253753162       -0.03356288451086
H            3.93861437476830        0.95173278866829        1.08875607233204
H            4.17944965510346        0.90257966412535       -0.66866316517243
H            2.84743405961622        1.86871849595123        0.03322153064467
H            3.83381028102998       -1.83200422554113       -0.17322960367934
H           -2.78023177413984        4.29236154691822       -0.32534100752634
H           -3.96490197191094        3.24866509748866       -1.29422493465084
H           -4.06038146409091        3.28947385320826        0.55585184708118
H           -0.93523366402669       -3.53258703820133        0.81715701791886
H           -0.95604893465795       -3.40709337972994       -0.96971482479840
H           -2.30952741457980       -2.77138797542372       -0.00538430656647
H            1.67186556225471       -3.18389698172861       -0.21173471230098
