25
 energy: 58.006391155154 xtb: 6.6.1 (8d0f1dd)
C            3.45025867517696        0.93267562313205        0.19522596422636
N            2.44140771997088       -0.07591227365186        0.00968144856992
C            2.74893197105076       -1.35629491839529       -0.12807811926232
N            1.61356947846061       -2.09279147093496       -0.15577734117714
C            0.55217859659891       -1.22203229496367       -0.03806378561888
C            1.08582465055527        0.05278141157679        0.04955677197646
C            0.18173174955211        1.22875928261689        0.21103055478216
O            0.65412653548455        2.33670167678329        0.40776017479613
N           -1.12481188405379        0.94299514167539        0.16899504883966
C           -3.23095726459495        3.10727512449073       -0.39349040215386
C           -1.67498792925901       -0.23213481483998        0.20193870783825
O           -2.81382876114498       -0.55766711321874        0.38723568094830
N           -0.74337254641984       -1.44949519632785        0.00860629270066
C           -1.24187451785520       -2.79071391067973        0.02902551185647
H            3.97086526603682        0.70483769137876        1.12259452687609
H            4.16720156204347        0.87816209418993       -0.62305545423387
H            3.00803669008746        1.91215914440034        0.25688728890780
H            3.73277194813218       -1.72440174053575       -0.27777433918244
H           -2.50447993951495        3.86584455507539       -0.38513139782075
H           -3.62005841645027        2.77797960185117       -1.31936089901535
H           -3.75010003012683        2.86130587485255        0.48807584782807
H           -0.79950585400489       -3.33326573224204        0.86856396799093
H           -0.95812961949370       -3.27808847458036       -0.90275639507994
H           -2.32892456811956       -2.79054028208891        0.12334885296593
H            1.60411898494363       -3.09400109275993       -0.23688467955658
