25
 energy: 52.336359827346 xtb: 6.6.1 (8d0f1dd)
C            3.38293557464918        1.04732039083269        0.14908705880009
N            2.37351381175345        0.03287395879597       -0.00798089490744
C            2.65056822833898       -1.29521511475611       -0.10192338218655
N            1.47547550400221       -1.99363819062854       -0.15279444193372
C            0.45521891315279       -1.09595482473987       -0.06831523360457
C            0.97804341626486        0.17896532095995        0.01971198302836
C            0.07292743697476        1.35150467062666        0.13751356603639
O            0.50073157802130        2.48482362815200        0.32084071494746
N           -1.31090083555830        1.07616032025413        0.03918543606626
C           -2.75653857094719        2.60127551558476       -0.31227442334032
C           -1.81768380317251       -0.16791916287957        0.12204725018292
O           -2.97559416535825       -0.49671143524322        0.25930416601098
N           -0.86360617334527       -1.31236532566280        0.01802455304038
C           -1.31849418992974       -2.68068570854020       -0.00445946334849
H            3.93846659108304        0.92390245280651        1.09347824199840
H            4.10933136421231        0.95583704247991       -0.66357312104876
H            2.91976580182657        2.02747298754338        0.12922701279446
H            3.61007934668044       -1.75283072270867       -0.21766132919476
H           -2.14475593075433        3.47225414960147       -0.32348971632850
H           -3.26799769788889        2.41421897275422       -1.23248548699568
H           -3.35554792532925        2.50810795175505        0.55725485222251
H           -0.91685125979295       -3.24778492778790        0.84218445421567
H           -0.95871894517525       -3.14460688270047       -0.92720172674740
H           -2.40995983970414       -2.70048529758364        0.01994735913236
H            1.42265721997806       -2.99061302771974       -0.25605049042259
