25
 energy: 58.810473075957 xtb: 6.6.1 (8d0f1dd)
C            3.43579689523272        0.96825025805748        0.18287631552804
N            2.41772809661603       -0.03494811029775       -0.00321194463192
C            2.71605894345890       -1.32306881125566       -0.11728024391587
N            1.57446339509360       -2.05498857016659       -0.16098856983308
C            0.52129884610718       -1.17848950690076       -0.06100023173607
C            1.05360743147993        0.09556092636750        0.03411530610221
C            0.13795887108307        1.26979901868662        0.18557442426867
O            0.60775961101465        2.38004095184463        0.40280511524217
N           -1.17962804719722        0.98715054475617        0.12423235659776
C           -3.09316879076526        2.94781803556026       -0.37710038324244
C           -1.72010173349227       -0.20235881320451        0.17826174090787
O           -2.86118237981913       -0.53301461346301        0.38565702492031
N           -0.77931148122144       -1.39958536236899        0.00263893524802
C           -1.25662087937870       -2.74837804473188        0.02832517574696
H            3.96409779495627        0.74601080097886        1.11986489647142
H            4.14971547595670        0.89879361358594       -0.63892952692167
H            3.01002086380605        1.96118577361221        0.23068521262021
H            3.68819201125714       -1.69536448231226       -0.31528266540785
H           -2.39267667070558        3.73124325989778       -0.37094563714674
H           -3.51190533860676        2.65392843914636       -1.30188166181162
H           -3.62992764488344        2.73109153214479        0.49933274457482
H           -0.80572718503797       -3.26748332308479        0.87856268487312
H           -0.94465116816355       -3.23279664157130       -0.89646061105014
H           -2.34638451468054       -2.76726117152157        0.08530879183008
H            1.55042409202814       -3.05520275323685       -0.24150968478897
