25
 energy: 58.722651960981 xtb: 6.6.1 (8d0f1dd)
C            3.44536607200857        0.94763172646121        0.19143577445271
N            2.42869574487686       -0.05478147727051        0.00003433365129
C            2.73272907991112       -1.33843424423444       -0.12810769267134
N            1.59490941247488       -2.07347398549392       -0.16007041560599
C            0.53663094378450       -1.20052768304381       -0.04845495919493
C            1.06957762729927        0.07391479040821        0.04142843054846
C            0.16060505407092        1.24904256075861        0.20231306700637
O            0.63778161281271        2.35501944913144        0.41766619796111
N           -1.15153708982104        0.96582000410003        0.14568379746635
C           -3.16319617849843        3.02798254253104       -0.38555576317036
C           -1.69747749549200       -0.21553089661945        0.19095097524588
O           -2.83477362056405       -0.54762966489823        0.39983114999487
N           -0.76084068367821       -1.42505282294441        0.00500470727006
C           -1.24857148798025       -2.77017352559707        0.02896657276190
H            3.96414475734748        0.70349139066281        1.12385386904156
H            4.15919205256278        0.88703003603536       -0.62969044096119
H            3.02191186606504        1.93868825838375        0.25487749629606
H            3.71493074452067       -1.70190876061970       -0.30427064967502
H           -2.44961511527478        3.79880358155832       -0.37826575971986
H           -3.56675691661166        2.71606475890131       -1.31127122197057
H           -3.69103091442185        2.79567831690051        0.49344922208601
H           -0.80039480758530       -3.30047312560757        0.87377980127804
H           -0.95138610003815       -3.25640309353333       -0.89920365510749
H           -2.33693416490176       -2.78081007075522        0.10355180668558
H            1.57901095532996       -3.07415248061986       -0.23925644896636
