25
 energy: 54.917113994652 xtb: 6.6.1 (8d0f1dd)
C            3.45426933724003        0.94063226632322        0.14873845128236
N            2.52284206800050       -0.15323889960710        0.03433551927335
C            2.83680659995514       -1.43697359403947       -0.10101543160840
N            1.69636516101309       -2.17336234233349       -0.11934705403048
C            0.62691387347920       -1.31099910561725        0.00612089859749
C            1.16835853648114       -0.03518688195604        0.10249843418998
C            0.27896555343723        1.14238945505098        0.24204765653110
O            0.72355205355221        2.28032900637777        0.26954662328880
N           -1.01509281916244        0.80490169948099        0.32783523862398
C           -3.54867846540211        3.49878827084357       -0.41563797371497
C           -1.60685626225116       -0.34387715719340        0.22030160793822
O           -2.77149980077676       -0.63609560936787        0.21123129382245
N           -0.66778077782259       -1.56607627819341        0.03584590092416
C           -1.21570991218823       -2.88768129888560       -0.00521818392115
H            3.97670205809679        0.92629803720241        1.10313707021815
H            4.18078153630607        0.89984639514102       -0.66193047918478
H            2.89285739354522        1.87229533547504        0.10966720464055
H            3.82479890166907       -1.83364373367730       -0.19609548321240
H           -2.75306629158674        4.21151098165849       -0.38863307364368
H           -3.87710915797091        3.09372643732851       -1.34913339960379
H           -4.03089256177351        3.20190508790213        0.48802716755794
H           -0.85420493699065       -3.48013993194054        0.84031265470150
H           -0.95149249657597       -3.38188713690635       -0.94455903443661
H           -2.30032055346754       -2.79377904066854        0.06982361107389
H            1.61713991521908       -3.17023594255323       -0.23607260775969
