25
 energy: 22.246733055722 xtb: 6.6.1 (8d0f1dd)
C            3.34860128156101        1.08331386730842        0.13527176127927
N            2.34559734132695        0.06581702508518        0.00814790367736
C            2.63212870111168       -1.29409427154790       -0.06007106851710
N            1.43402986187900       -1.96719298223332       -0.12866165368566
C            0.43009778120714       -1.06921186151686       -0.04563594750679
C            0.92780827566194        0.22253597490462        0.04177347025342
C            0.05641309476340        1.38608712930486        0.11113362909565
O            0.46229467448616        2.53922827958793        0.25017864867562
N           -1.43939362274230        1.15942825107251       -0.03239461665590
C           -2.52460573735050        2.36412719353033       -0.23818357810651
C           -1.86750855214227       -0.15530679537787        0.08149724661160
O           -3.03051234498489       -0.48502058699051        0.17417053154014
N           -0.91306776918191       -1.26751457814139        0.03435032497921
C           -1.36152677690883       -2.65238356955734       -0.01617737292162
H            3.89872461731642        1.00836612189697        1.08757079510674
H            4.08544100438408        0.98190458175377       -0.66978016865059
H            2.86468859497499        2.05151692136369        0.07761552755971
H            3.59908543295627       -1.74553202649680       -0.14575515747232
H           -2.00748749120446        3.32507096045058       -0.25967047945040
H           -3.11159883833292        2.29758625398913       -1.16382857156357
H           -3.20919493285020        2.38897551362214        0.60716109775100
H           -0.98178190125222       -3.23243664268787        0.83425029745242
H           -1.00257803495977       -3.13961494920591       -0.93212426746295
H           -2.44996294723103       -2.66674801619264       -0.00439234474928
H            1.36817751183324       -2.97020155666482       -0.21234132726638
