25
 energy: 14.029351315405 xtb: 6.6.1 (8d0f1dd)
C            3.33112901662277        1.10038440438890        0.12772312417928
N            2.33693990319812        0.07305140990830        0.01828878878283
C            2.62579415931212       -1.28684668119263       -0.03892921229533
N            1.42621018430214       -1.96325338961975       -0.10564017075239
C            0.42314208082340       -1.06489976108394       -0.02654068950359
C            0.92141238048249        0.22684463602121        0.05525578852897
C            0.05526709201932        1.38588145557729        0.10821990189095
O            0.45829570769210        2.54570954054882        0.20728203043078
N           -1.43056664539447        1.15050389229787        0.00264715860960
C           -2.47078841927604        2.32345905983188       -0.20878475829056
C           -1.86500667118030       -0.16169243545830        0.07006279593802
O           -3.03611179849129       -0.47336420031238        0.12688066524555
N           -0.92058025191568       -1.26672959060895        0.04787113269167
C           -1.37861597879491       -2.64930344640673       -0.02214795666248
H            3.87447708484883        1.05023498417202        1.08424549730278
H            4.07272453764585        0.99519941066812       -0.67224046382010
H            2.83447874261342        2.06093711322136        0.05042563426963
H            3.59564339698768       -1.73589227704886       -0.10721054656528
H           -1.94645486557665        3.28205921458571       -0.22342902940753
H           -3.05488973479562        2.26434402625042       -1.13566629908064
H           -3.15459250629171        2.34296922392420        0.64028634359672
H           -1.01242892569104       -3.23107436471869        0.83157961900969
H           -1.02388828540342       -3.14447921592023       -0.93579685226276
H           -2.46677203431557       -2.65023478127146       -0.01628983341411
H            1.35770041962021       -2.96723033236669       -0.17658292207414
