25
 energy: 57.407230006804 xtb: 6.6.1 (8d0f1dd)
C            3.41248021761989        1.00898550462954        0.16416115651507
N            2.39669724987600       -0.00034415203776       -0.00591729743936
C            2.68203852329208       -1.30143675013096       -0.10171559411461
N            1.52858127000366       -2.02156950603927       -0.15802605356945
C            0.48817596506082       -1.13505312689061       -0.06981962040339
C            1.02108466494867        0.13760876066858        0.02444293979749
C            0.10850938713980        1.31338461519292        0.16433136136177
O            0.55736234721140        2.43441270945516        0.37074433907149
N           -1.23267080525963        1.02914469449925        0.08628232894673
C           -2.94113184634528        2.78535119247439       -0.35277661823680
C           -1.76808523065296       -0.17854490568298        0.15484752895395
O           -2.91811479873552       -0.50828784614382        0.33212727149676
N           -0.81828924734332       -1.35431875290312        0.00730793559235
C           -1.28313237642560       -2.70959055210089        0.01394484555291
H            3.95929071861481        0.83411119164940        1.10301071563964
H            4.13023469561555        0.92756165846242       -0.65474566506007
H            2.97130887967625        1.99789028282002        0.17681587411220
H            3.63868098114911       -1.72573785530411       -0.28043459139986
H           -2.27297426629215        3.60092336167108       -0.35065500782281
H           -3.39778875780632        2.53458623992778       -1.27539421704657
H           -3.49974140516637        2.61094635396422        0.52026749529865
H           -0.85776386789412       -3.25221704820941        0.86168777579222
H           -0.93879530407374       -3.18095650002023       -0.90725406144581
H           -2.37508924565007       -2.73318621933849        0.04970707552944
H            1.48971303113308       -3.02075715129790       -0.24827870487409
