25
 energy: 13.694557741028 xtb: 6.6.1 (8d0f1dd)
C            3.42578053815537        1.15115070526159        0.07387355638249
N            2.37658820950822        0.14418627608188       -0.02347919746497
C            2.58944205181851       -1.25598639354358        0.05202082840861
N            1.34890233620341       -1.85817571748045        0.01517804139630
C            0.37121261789129       -0.93751942007222       -0.04370856874072
C            0.93811062446064        0.33925122399690       -0.04655609463284
C            0.03295267647878        1.41916004387675       -0.06577150227382
O            0.25189673265442        2.61580034377663       -0.04417924259470
N           -1.53124985518347        0.97368341982354       -0.07276515024131
C           -2.40515996102331        2.09273673604723        0.05385104135077
C           -2.03481742753394       -0.26163012237596       -0.20033717489798
O           -3.18526795653758       -0.61679707843096       -0.27044097163123
N           -0.96729177822523       -1.21841773671673       -0.10588874495060
C           -1.40272511930141       -2.58562496503619       -0.05915713920983
H            3.81968459440375        1.35079789278818        1.09203992895732
H            4.32854781103826        0.87501086013070       -0.50219354796569
H            3.08050291657484        2.10918981183543       -0.31628910743474
H            3.50435355318745       -1.82529254446217        0.01698498262685
H           -1.69759985481840        2.88926661484699        0.19042184492069
H           -3.00933453077901        2.23336563203240       -0.84324844947020
H           -3.07548586338454        2.03128814851011        0.92710139863130
H           -1.20496365714915       -3.04203250596622        0.91402946015619
H           -0.95911453049825       -3.16955149974760       -0.86335538842995
H           -2.47732590811261       -2.50327607785978       -0.21700739955561
H            1.22051531847912       -2.86352307402630        0.01912622649255
