25
 energy: 40.614449608094 xtb: 6.6.1 (8d0f1dd)
C            3.52861902858156        1.10364102598609        0.07787560029881
N            2.42009412156536        0.16235418062510       -0.00494542570085
C            2.59044403762288       -1.23685211809788        0.08039018298521
N            1.34171542568190       -1.81826424994486        0.01171302626708
C            0.36097291036794       -0.88442228193496       -0.04733900619000
C            0.97515755051299        0.38582209643083       -0.01352353347872
C            0.11981105060656        1.46299677012790       -0.06868871154369
O            0.13733389853336        2.64940245143820       -0.05462945775321
N           -1.74277723447459        0.94287732496435       -0.06965299074729
C           -2.53825338465164        2.09661045900992        0.07255382545513
C           -2.19724138154666       -0.27046544833313       -0.25687415597769
O           -3.27883502374148       -0.77000674854978       -0.40384062913263
N           -0.96594936486543       -1.17106233275242       -0.13798976525478
C           -1.34642630252995       -2.55681035109886       -0.03949354842314
H            3.92150602239133        1.30237924144850        1.09561619566923
H            4.43695942522610        0.72374423509431       -0.44100448492580
H            3.28421446705807        2.05483037883595       -0.38317334777945
H            3.47844598597399       -1.84773285645716       -0.09626568002247
H           -1.85879116149059        2.89197554190199        0.31495801499960
H           -3.08482760119394        2.33582623071088       -0.84641898417944
H           -3.24917011030032        2.03875853617426        0.90890130617499
H           -1.17185010189008       -2.96121276554883        0.96040844909304
H           -0.86224968136205       -3.16250009131150       -0.80684510227644
H           -2.41164632005599       -2.55032950212776       -0.23076259658328
H            1.15882034631208       -2.81777909802630        0.01171679955629
