25
 energy: -5.618990667658 xtb: 6.6.1 (8d0f1dd)
C            3.28611823349567        1.17044128837483        0.08356921224567
N            2.31963149555196        0.11395277516418        0.03005696494005
C            2.60173591219841       -1.24496463038441        0.03752296591425
N            1.40344366881473       -1.92498898487768        0.00491627962222
C            0.39288950315682       -1.03565639555488       -0.01803490866765
C            0.92238278852953        0.24740952783545       -0.00241822385892
C            0.07794262572062        1.37741657503354       -0.03299165463753
O            0.43846582433692        2.56068883552828       -0.01421062436299
N           -1.32598434917739        1.01577670443496       -0.04959301077450
C           -2.26036685283629        2.12190074399986       -0.01964064730140
C           -1.87290551934706       -0.22363105837692       -0.09456977486371
O           -3.06628160603520       -0.43985929944883       -0.11747002735521
N           -0.94842098496397       -1.28422474957942       -0.05721684557835
C           -1.45979883122480       -2.62791821676792       -0.06215043874088
H            3.74753274317465        1.25656721913666        1.07647702028086
H            4.09244298925414        0.99906806119141       -0.63937205739683
H            2.78838201107809        2.10815137529754       -0.15128957365677
H            3.56789991012667       -1.69661852325814        0.05013312629979
H           -1.63705771124772        3.01049143715314        0.02297234007456
H           -2.87808073855019        2.12163596213970       -0.91838324730678
H           -2.91164914139173        2.05170974688215        0.86096164170211
H           -1.17371785567246       -3.15592663762143        0.85021893578995
H           -1.09769542777388       -3.17059124650406       -0.93704936974503
H           -2.54422473104723       -2.53141898823349       -0.11024702081885
H            1.33353882333403       -2.93005942465533       -0.00997078827837
