25
 energy: 74.537951668830 xtb: 6.6.1 (8d0f1dd)
C            3.77923761354803        0.91329626185914        0.03765811096562
N            2.59345867895626        0.13145758510046       -0.02159485574565
C            2.66917146308816       -1.22863017377369        0.08672654066839
N            1.41924635521466       -1.72992272831456        0.10857364987966
C            0.46028039376584       -0.75763505982829       -0.12682763141369
C            1.21265688835008        0.51170991442176       -0.14778899422930
C            0.63233793849902        1.69678834336903       -0.17677008702790
O            0.17253297003100        2.78118868709870       -0.07916074634816
N           -2.65168301317546        0.76818292853031       -0.29974254733653
C           -2.82757493726012        2.05929127386144        0.21677895290422
C           -3.25851279414579       -0.23253013540247       -0.38899532065480
O           -3.86028539691713       -1.19947515887573       -0.58457734690438
N           -0.78031110087381       -1.03831908517374       -0.22253718188448
C           -1.19303336774895       -2.42472828825952        0.01086275980057
H            3.87956347683338        1.51950657459732        0.91642549015495
H            4.62698264871360        0.19002463936994       -0.02682771434862
H            3.89040887252706        1.63863521429917       -0.76037689587343
H            3.49179545544901       -1.78225125576919       -0.27451986303551
H           -1.90062108898380        2.29142659291139        0.70817523097190
H           -3.16694496527445        2.67874336780253       -0.60959398438061
H           -3.58355761723143        2.02119915004091        1.01455012971770
H           -1.17880392717015       -2.69742683639981        1.08166914800583
H           -0.58438347912749       -3.14171407666324       -0.56297817925340
H           -2.19989715114739       -2.50514562858450       -0.38488149129763
H            1.19964455472967       -2.70441403675618        0.06311668018555
