25
 energy: 66.758928402606 xtb: 6.6.1 (8d0f1dd)
C            3.87897556016964        0.90064190109999        0.02087307158239
N            2.71859849638392        0.09090177390404       -0.00677313414687
C            2.79956337240510       -1.28294945405425        0.02126303614794
N            1.55427230572158       -1.78123719894013        0.18112169805079
C            0.60123475970366       -0.77047424829972       -0.08081295700682
C            1.36532970894743        0.49496155098750       -0.17696805889217
C            0.88046708118258        1.75006214851483       -0.12210280326307
O            0.13843162931642        2.67818067457059       -0.13917797374345
N           -3.23453561024817        0.77571788673463       -0.32350748326462
C           -2.78610172777144        1.97431456138854        0.20949116031079
C           -3.83757244220542       -0.21263917192258       -0.37564847302584
O           -4.40905862320528       -1.20842944754815       -0.54821766364268
N           -0.64297886343476       -0.98305614332698       -0.19749755942442
C           -1.20642914708650       -2.30209971304371       -0.01113526247974
H            3.77713377477185        1.77028818720376        0.67276849065370
H            4.62247282510370        0.24931195238266        0.42379329241604
H            4.19874625043438        1.24484160846405       -0.96397482572266
H            3.66632305599567       -1.90635244742288       -0.05633306984213
H           -1.74738208315271        1.77177404532512        0.45769265764768
H           -2.90335120484491        2.71939528362084       -0.57469484033903
H           -3.30766898185519        2.21685247144781        1.12083954931704
H           -1.27093215822711       -2.53098805307891        1.06133894902218
H           -0.61055541268353       -3.09121764320720       -0.49627093983782
H           -2.22396414350820       -2.28390209414036       -0.42815199958623
H            1.34986946031540       -2.75427947058468        0.04022833521271
