25
 energy: 77.230510618003 xtb: 6.6.1 (8d0f1dd)
C            3.70689182977210        0.97488994304475        0.05470408272938
N            2.52952397616451        0.15135527919811        0.00106843678622
C            2.62687939470340       -1.20625858538391        0.09462487382105
N            1.37548996709291       -1.72898070453005        0.06473003123737
C            0.39582479462592       -0.77340957762717       -0.12110647080592
C            1.13431369078796        0.49382847814751       -0.10743885093114
C            0.53684778956345        1.66497188560616       -0.14429378845472
O            0.19710952900476        2.78994493403903       -0.05240410196915
N           -2.43226781639283        0.81887810697500       -0.28022331360591
C           -2.80690764436940        2.10082542877582        0.15111469838146
C           -2.99637166827898       -0.21772585780274       -0.39361298066489
O           -3.64589972963272       -1.15218357382183       -0.59911267901469
N           -0.84377850270587       -1.07695563638231       -0.22227507690265
C           -1.21502730586502       -2.47340319538155        0.00408025227301
H            3.89447466376574        1.44854279042547        1.00515512033170
H            4.55619100387062        0.29803822465761       -0.17305810074486
H            3.73524204597235        1.78717036700290       -0.66723191950588
H            3.44767342107948       -1.75603236208897       -0.31807827316803
H           -1.96401948991361        2.50998276844020        0.67246735669162
H           -3.18123832619934        2.62876128530397       -0.72241731403568
H           -3.60633548342950        2.01151976143816        0.90752129437141
H           -1.13530404883446       -2.77412263776216        1.06010676032877
H           -0.64444107159239       -3.15034941555671       -0.63706535138155
H           -2.23870712290246       -2.57745022213318       -0.32645292675376
H            1.17718335442551       -2.71688618812043        0.00776936111677
