25
 energy: 56.819124697635 xtb: 6.6.1 (8d0f1dd)
C            3.56451384123882        1.07652434288944        0.08484308917633
N            2.44059079676509        0.16043515519575        0.01520079951342
C            2.59348371920790       -1.22910222789320        0.08982984579356
N            1.34304391651187       -1.79809067840918       -0.00020288089864
C            0.35455586756440       -0.86417458517722       -0.06611845677497
C            1.00726176385814        0.40101019436501       -0.01931919658672
C            0.22350485859984        1.49985287895936       -0.07846814887327
O            0.12499350364593        2.67112000595337       -0.05467719978379
N           -1.87058155535223        0.91938615821663       -0.08263074746129
C           -2.60212100238024        2.10650486620184        0.07814720972624
C           -2.31013942284280       -0.26254476792945       -0.30398645352280
O           -3.32002372243564       -0.87159598042737       -0.47290349774340
N           -0.95594060800328       -1.15331147945038       -0.16251621935944
C           -1.31799276953939       -2.54494555179200       -0.02870858188038
H            3.89427992042608        1.29857945071764        1.11304884157392
H            4.46115247327678        0.62970507348443       -0.39419321470268
H            3.37708835739540        2.01097550671243       -0.41913657788501
H            3.47114939831104       -1.84250367329901       -0.15855746447821
H           -1.90409338670022        2.85589647281456        0.40898340968279
H           -3.10806416220335        2.40727590606786       -0.84738286861534
H           -3.33734639635329        2.05167243119944        0.89354752896546
H           -1.15259165823852       -2.92449068242106        0.98268578697702
H           -0.81732150525336       -3.15977906043876       -0.77736287282811
H           -2.37824546760708       -2.58066738032725       -0.23475563041803
H            1.13606142006358       -2.79565672834657        0.02622687426105
