25
 energy: 58.351664982539 xtb: 6.6.1 (8d0f1dd)
C            3.91876856828707        0.96731939808093        0.02204352190807
N            2.78378459492398        0.08154987723906        0.01228066398204
C            2.87758066961055       -1.26451754931177        0.03786081334874
N            1.63054775947103       -1.78903359535124        0.12065292447248
C            0.66193876444023       -0.80197385686722       -0.04177745857929
C            1.41977380023184        0.45965674324882       -0.10803935502658
C            0.94524448170914        1.69329796094625       -0.06955604483303
O            0.30670121765440        2.69043306431470       -0.12405619407954
N           -3.59827546616967        0.84392817765687       -0.27076721260016
C           -2.72801889558431        1.86127857864509        0.14253107812188
C           -4.12959499727480       -0.19303930950195       -0.35151313867629
O           -4.72724969147612       -1.17650719073901       -0.52417294037826
N           -0.60269778835190       -0.93214094998378       -0.10937425014355
C           -1.22169394392757       -2.23355178652162       -0.00469823642566
H            3.80937333460822        1.72849554852780        0.80460623458848
H            4.78479054173495        0.35573822407518        0.26948771304946
H            4.07366658642999        1.45541356943775       -0.94074860311959
H            3.76870117133032       -1.86222848998361       -0.00247189522071
H           -1.73179302333714        1.43448928458456        0.26917922622274
H           -2.73712379707845        2.60830549622304       -0.64721840960349
H           -3.06932299422141        2.29100409416354        1.08251364957235
H           -1.30112739202845       -2.49878042409097        1.06025710356295
H           -0.69892154383313       -3.02461600968413       -0.56171472713293
H           -2.23173118737843       -2.13487840194828       -0.39430882663454
H            1.43872479044431       -2.77458229031213        0.02659173252348
