25
 energy: -1.601074928383 xtb: 6.6.1 (8d0f1dd)
C            3.33347809620751        1.16436823991219        0.07942987222807
N            2.33657791415394        0.12622144084039        0.01765106684965
C            2.59641411972546       -1.25022403379527        0.05703171590488
N            1.38312983531700       -1.90477307826674        0.01173698215399
C            0.38482064926520       -1.00606272958962       -0.03191574736451
C            0.92603321539597        0.27419893490452       -0.02456436481136
C            0.05124503332913        1.37648872448618       -0.03384459716888
O            0.36867119895869        2.56922642934779       -0.02145789880781
N           -1.38986809699709        0.98588433184665       -0.04760702079813
C           -2.29990497865147        2.10131377551482        0.01431497351592
C           -1.92540712666503       -0.25070850818104       -0.11977293402788
O           -3.10873544753506       -0.50876506556475       -0.17430611083113
N           -0.95526755128892       -1.26852434277884       -0.08109623419671
C           -1.44341526033331       -2.61679266899179       -0.06505669721119
H            3.77232313255329        1.29273715959125        1.08487027570030
H            4.17172808988866        0.94243009391748       -0.59901846394273
H            2.88438413771211        2.11123229353524       -0.21669376706581
H            3.54623806028432       -1.74599093955475        0.06548141998069
H           -1.61612330093807        2.94040955627630        0.08939005811024
H           -2.92707699197546        2.15145839205023       -0.87839872816840
H           -2.95170053479775        2.04767215772067        0.89648089227487
H           -1.18316385158349       -3.11752573068886        0.87071373824974
H           -1.05048406800610       -3.17595028563232       -0.91521020689659
H           -2.52651797363672       -2.51725818992784       -0.15371479445101
H            1.29591403889376       -2.90949555968406       -0.00036412314609
