25
 energy: 76.495344588830 xtb: 6.6.1 (8d0f1dd)
C            3.74156858488669        0.94686760767496        0.04031942491337
N            2.55687914965811        0.14954916297028       -0.01128310164914
C            2.64177654598817       -1.20750881814362        0.10030483270377
N            1.39455134828827       -1.72401981898944        0.08943102947144
C            0.42634596741124       -0.76054541204250       -0.12681312787706
C            1.16961321672187        0.51138275006612       -0.12973980548265
C            0.57727518331564        1.69034565385501       -0.15717536360053
O            0.15632188015758        2.79107317975625       -0.04773842810815
N           -2.54330706393684        0.79196165532215       -0.30382157084462
C           -2.82491012188486        2.07306531801240        0.19270124358464
C           -3.13084935167731       -0.22640932179356       -0.39270512772868
O           -3.75612342329549       -1.17707027345056       -0.59180308649867
N           -0.81259359604172       -1.05506593929775       -0.22499875397087
C           -1.20338214877069       -2.44618004020316        0.00926167315310
H            3.89045705404278        1.48404234286723        0.96115434836951
H            4.59071883111730        0.23980641655084       -0.10982637670622
H            3.82183097131655        1.72773924405130       -0.71727871479455
H            3.46985755299216       -1.74154287707715       -0.27452215900955
H           -1.93770335859150        2.39749495621408        0.69864901565275
H           -3.19103737327144        2.64344608078144       -0.65811724192164
H           -3.62158315787550        1.99373757195308        0.96120258396298
H           -1.14447728402665       -2.73163906520417        1.07513300549724
H           -0.61168470516555       -3.14318385980052       -0.60036461497151
H           -2.21852647712024       -2.53862755602561       -0.34772911463610
H            1.18050578967252       -2.70417307769137        0.03946484736579
