25
 energy: 56.922613510322 xtb: 6.6.1 (8d0f1dd)
C            3.91511065794504        0.97227253218082        0.03157698327831
N            2.80502592289854        0.07564517791476        0.03108346532405
C            2.89912547684324       -1.26331416833980        0.04804943119953
N            1.65767104334747       -1.80172300049774        0.10039316049068
C            0.68482586360941       -0.81722764089150       -0.02542776913192
C            1.44342462611763        0.44019640229682       -0.08045736761302
C            0.97935189346304        1.67630688351729       -0.05381692398469
O            0.36739819523551        2.68955219692806       -0.11693355426172
N           -3.70810071201722        0.87875916339486       -0.24491528629226
C           -2.72467125137185        1.81850113329973        0.11895209653998
C           -4.22502485702474       -0.17096753994877       -0.34155469163376
O           -4.82734567124660       -1.15261103574269       -0.51563753927168
N           -0.58285455701559       -0.92310668273176       -0.07982085589650
C           -1.22373261426214       -2.21362666801941       -0.00463668729004
H            3.82882390630899        1.69677879789145        0.85695916406784
H            4.82863425370389        0.39730501088062        0.19120180582053
H            4.00068197922098        1.53226151780530       -0.90506218318401
H            3.79559365987226       -1.82912377639162        0.02000608018250
H           -1.75710171603771        1.32198817307448        0.21315970847592
H           -2.69067245555489        2.56556208920426       -0.67246530642797
H           -2.99173593583496        2.29276837311068        1.06450439210404
H           -1.29096450547743       -2.52145779784756        1.04414317443193
H           -0.73246647651633       -3.00071464178262       -0.59101143744129
H           -2.23461240326328       -2.08473183835231       -0.37918596858203
H            1.47909893958347       -2.79094449135115        0.02633861234483
