25
 energy: 77.996561995312 xtb: 6.6.1 (8d0f1dd)
C            3.66734254550456        0.99944283194350        0.06633170479125
N            2.50084231470657        0.14955852899429        0.00809950338523
C            2.60986211381074       -1.20523163825850        0.08733861382985
N            1.35983251339306       -1.74072596880643        0.03337090332603
C            0.36912209363589       -0.79331690026911       -0.11101219114356
C            1.10161254907188        0.47024284062840       -0.08397258157966
C            0.49508930633002        1.63278121360475       -0.13162143140664
O            0.20629850057131        2.76819385088869       -0.05315542184730
N           -2.31119389005133        0.84143703290843       -0.23199696325275
C           -2.76514730081965        2.11693100730634        0.12842550799174
C           -2.84970720909159       -0.21337796309471       -0.38796371763083
O           -3.54525138992070       -1.11616105188968       -0.59984875702138
N           -0.87473663045213       -1.09923563984696       -0.21860471043515
C           -1.23857346153027       -2.49496827215487       -0.00778779024952
H            3.89544967539882        1.40656470470042        1.04279016559245
H            4.52471363636711        0.36951211472912       -0.23036572630148
H            3.63805462232824        1.84325042861881       -0.60788017196348
H            3.45031121108222       -1.76944206027605       -0.29380657002389
H           -1.96488242268670        2.61749043086107        0.63023037094296
H           -3.16355897183568        2.59510306264458       -0.76402885110818
H           -3.54515124220714        2.02172495193232        0.90126118877115
H           -1.12617057170319       -2.81250758202049        1.03809105867919
H           -0.68208908490258       -3.14996358439761       -0.67861168364247
H           -2.27447677372103       -2.58809962672548       -0.30929444527267
H            1.18606594941254       -2.73836530151207       -0.01201054793468
