25
 energy: 77.213322620393 xtb: 6.6.1 (8d0f1dd)
C            3.63804094332638        1.02612160307273        0.07097894918626
N            2.48135960080768        0.15654830894691        0.02230982959882
C            2.59675766143963       -1.20240739652304        0.07412310719332
N            1.34846104912767       -1.75094690142624        0.00450340544745
C            0.35198456583061       -0.81248767944082       -0.10067168726497
C            1.07179461587517        0.45147606113252       -0.06222199727927
C            0.42688872824096        1.59987309024116       -0.12028660632202
O            0.16915616660581        2.73978566710429       -0.05246953537744
N           -2.17971153099914        0.86799398260732       -0.17759785226804
C           -2.72378020243231        2.12642765630012        0.10497494934524
C           -2.67719876606666       -0.21856506579234       -0.37661601455426
O           -3.45179572030506       -1.06273176046879       -0.58974129425792
N           -0.90437781035767       -1.12179659725131       -0.20280510161071
C           -1.25762648730925       -2.51582889148630       -0.01187867690721
H            3.90783048727698        1.35756174355016        1.06977910243210
H            4.50924137855480        0.45158647365337       -0.29632693921920
H            3.55636776327629        1.90935482170668       -0.54302043466528
H            3.45267920277232       -1.79711828662301       -0.26191953825255
H           -1.95601614336364        2.71456089332979        0.56652049077969
H           -3.14867457093739        2.55413264806624       -0.80590042902013
H           -3.50327415783199        2.05506833403120        0.87988826924816
H           -1.11228001252069       -2.85139205787463        1.02112749864510
H           -0.72171327417263       -3.15288632315117       -0.71413137915225
H           -2.30077353174033       -2.61450327236887       -0.27753504867462
H            1.16310312465089       -2.75072744301141       -0.01239922225047
