25
 energy: 63.538573766759 xtb: 6.6.1 (8d0f1dd)
C            3.89899321114879        0.91541784375651        0.01729560047663
N            2.74196053901941        0.08174375343998       -0.00433185539372
C            2.82916117167794       -1.28467214410539        0.02484447813149
N            1.57815011203445       -1.78470669445566        0.16201104712679
C            0.62070246826997       -0.77982771979421       -0.06994189732037
C            1.38081551775426        0.48129222986397       -0.16896446434787
C            0.91121412125691        1.73557721366788       -0.09976110651801
O            0.19058497766810        2.67738148281160       -0.14148941203022
N           -3.36045934300695        0.79110674602520       -0.31423770935955
C           -2.76043222301605        1.94009695572791        0.18883166928192
C           -3.93748332721026       -0.21421564823196       -0.36654375319780
O           -4.51778903376474       -1.20525059297355       -0.54154016621315
N           -0.63196772242516       -0.96444063140764       -0.17030776543202
C           -1.21074146839010       -2.28166035429073       -0.01902717886016
H            3.78003549579698        1.77544359456107        0.68529428414226
H            4.67063147927548        0.27485396422425        0.42985626181440
H            4.20800653937949        1.26224445967527       -0.98154650339059
H            3.70457540793785       -1.91370921360228       -0.05120821289800
H           -1.72970595112671        1.66100094580985        0.39435401988959
H           -2.84407104463855        2.68552434758406       -0.59766821611632
H           -3.22925849665596        2.25202209266579        1.11119122027167
H           -1.29842737015602       -2.51303210647346        1.05025013702721
H           -0.63113331823188       -3.07437390896746       -0.53003441431771
H           -2.22457795439494       -2.23668100752482       -0.42498350088831
H            1.35108861525914       -2.75895047598470        0.03289536851408
