25
 energy: 70.270988315544 xtb: 6.6.1 (8d0f1dd)
C            3.84663927170148        0.88368233280780        0.02319164153772
N            2.67773488780440        0.10570014029904       -0.02111057859185
C            2.74300071897133       -1.26669627451554        0.02649525450530
N            1.49861038206681       -1.75715668263902        0.14921379314303
C            0.55303115674281       -0.75518951541041       -0.11571535171401
C            1.32395338971891        0.51156882949648       -0.18805950956099
C            0.78449278702992        1.72669005241385       -0.16513352547893
O            0.09768090229257        2.69104014785578       -0.10180837876787
N           -2.98053084525695        0.76142723032763       -0.32034273932141
C           -2.82728103119195        2.03299416226887        0.23346504949246
C           -3.62120704799833       -0.20618840355099       -0.37470414460593
O           -4.19042756200082       -1.19965776009341       -0.55351866356714
N           -0.69126666004693       -0.99742396671098       -0.20599376552603
C           -1.19741375891348       -2.34440599546919        0.00420919901456
H            3.81870234754323        1.66558712232367        0.76652076512464
H            4.63147033538197        0.17631879169716        0.24228102529147
H            4.08748147547072        1.40348317353513       -0.90341706916452
H            3.59981637516487       -1.86569752364840       -0.13399338616843
H           -1.79952452677568        1.99248072076625        0.58122120066759
H           -3.02298375361519        2.74679927872340       -0.56459243037601
H           -3.44237758695911        2.13304701670179        1.11540411764415
H           -1.21907025809757       -2.58731774252077        1.07737085596949
H           -0.56818609635720       -3.10157633661850       -0.48248811798028
H           -2.21390165562669       -2.37790722073095       -0.41830277991826
H            1.30689543366082       -2.73302490107028        0.07795938633058
