25
 energy: 60.761501308793 xtb: 6.6.1 (8d0f1dd)
C            3.90528818483952        0.94394960503948        0.02140966342629
N            2.76354787089763        0.07802539793798        0.00476711819627
C            2.85767619557113       -1.27841136031232        0.03016253343844
N            1.60421717815380       -1.78367826831375        0.14051077879123
C            0.64045555006973       -0.78926452051652       -0.05709326125983
C            1.40023483459742        0.47443706419435       -0.13545235304063
C            0.93098610717070        1.71720260789399       -0.07945519943490
O            0.24688092550721        2.68361411972722       -0.13450257131586
N           -3.47886652046398        0.81262907874149       -0.30190309551099
C           -2.74033652206842        1.90132856276776        0.16501157441924
C           -4.03386154080190       -0.20792428742715       -0.35793245088951
O           -4.62452208089249       -1.19383567392901       -0.53223376736795
N           -0.61890652010559       -0.94647873262728       -0.14288481780249
C           -1.22104484277352       -2.25547734399966       -0.01953623987743
H            3.78954174815633        1.75355189045742        0.74922155047226
H            4.73133995272300        0.31677127331386        0.34879647887967
H            4.13901712661510        1.36607895428917       -0.96242857619937
H            3.74378036920894       -1.90359756870328       -0.02367191887978
H           -1.72325705594950        1.54817120018084        0.33099940903541
H           -2.78811369854086        2.64832076016366       -0.62265376981679
H           -3.15040459108783        2.27643233686679        1.09699195806343
H           -1.32825279437986       -2.48822706057152        1.04651018399445
H           -0.66715964096792       -3.05232612674746       -0.54159649779569
H           -2.23030926814411       -2.18480010253044       -0.41842001705363
H            1.39656147481287       -2.76417953221419        0.02735221166351
