25
 energy: 56.344753134550 xtb: 6.6.1 (8d0f1dd)
C            3.92294082876016        0.99676653235106        0.04406443709694
N            2.83202788889014        0.08005913345940        0.04258466707547
C            2.93547985013705       -1.25999571910730        0.05896156845756
N            1.69241822976994       -1.80846030650773        0.07359958195807
C            0.71426732558935       -0.82923920724674       -0.00647879474169
C            1.47152338297746        0.42980034400409       -0.04810833663168
C            1.02429511436205        1.67182162595999       -0.03354578352507
O            0.42840437925532        2.69381485407429       -0.11013825905922
N           -3.80525394487504        0.92039759105088       -0.21226819538846
C           -2.72242302800560        1.77719650051776        0.09697075351751
C           -4.32117247366767       -0.13559796164108       -0.32033524884244
O           -4.93332158409935       -1.10996962770371       -0.50243798449845
N           -0.55522009466102       -0.91799159738201       -0.05111404691989
C           -1.22373598680370       -2.19457494780033       -0.00730795451012
H            3.85480895235709        1.66418042735980        0.91292639038946
H            4.86097164223565        0.44420201784733        0.10611768496637
H            3.92961704203127        1.61216481942805       -0.86060400605782
H            3.84568424689799       -1.80357120217787        0.05511418076034
H           -1.78841751164908        1.21387861741194        0.16705938059814
H           -2.64647867303986        2.51965957564603       -0.69874731402378
H           -2.91638617988595        2.28795671837204        1.04222213346949
H           -1.28223054213798       -2.55258233425441        1.02210642607657
H           -0.75961880024631       -2.97269660047657       -0.62506943932590
H           -2.23807111027898       -2.03593986270613       -0.36298732607363
H            1.52105591551516       -2.79850270524197        0.03209300046034
