25
 energy: 69.541525882670 xtb: 6.6.1 (8d0f1dd)
C            3.86395132482156        0.88737570496145        0.02403670305122
N            2.69718807994529        0.10537900847564       -0.00776620555625
C            2.77341937653999       -1.27133704305391        0.02075250416324
N            1.53061899312336       -1.76513649388759        0.16905236076475
C            0.58052252218187       -0.75914647746834       -0.09881637566386
C            1.34822103993467        0.51139505675488       -0.19016832205849
C            0.82472133571969        1.74223255851001       -0.14886163807271
O            0.08590828002284        2.67505461161919       -0.12449112206019
N           -3.10813231319015        0.77096070886410       -0.32981480479954
C           -2.81358738099879        2.00773471510943        0.22421110869347
C           -3.73113464989373       -0.20553268688543       -0.38396486585496
O           -4.30186465269410       -1.20132208600765       -0.55458167731864
N           -0.65852562955966       -0.99442966210399       -0.21220719139757
C           -1.20384578320720       -2.32011474380796        0.00052838980334
H            3.79946817071146        1.71800828701506        0.71720396615869
H            4.61866074004926        0.20159981811894        0.33622037821900
H            4.13137194707474        1.30879273341154       -0.94151335319773
H            3.63639066829952       -1.88040689207225       -0.09308790154643
H           -1.77539676103689        1.87649434869384        0.51935903421644
H           -2.96439863738901        2.75298829359649       -0.55675323144662
H           -3.38335694732474        2.17745569797928        1.12305874274456
H           -1.24720890015649       -2.54951599871121        1.07497913572370
H           -0.58807169303180       -3.09832927158498       -0.45914722126826
H           -2.22158028462598       -2.32782299296808       -0.42645800262029
H            1.34439019717589       -2.74152450543677        0.07543689019378
