72
 energy: -99.327067871229 gnorm: 0.002745157492 xtb: 6.6.1 (8d0f1dd)
N           -2.25261506949908        2.94586553945716        2.38052689770118
C           -2.16757459962184        2.21558759230464        1.37025858880645
C           -3.28600615148286        1.99260833412197        0.38815081668170
C           -3.74989940482285        0.54738215403716        0.46888524505279
C           -4.62977917328961        0.04708846636935       -0.49284030015670
C           -5.08878725958869       -1.25900060069173       -0.44621153089254
O           -5.93805359356804       -1.81724257250104       -1.33323302715975
C           -6.50679665759979       -1.01377621690909       -2.34074843095727
C           -4.65265818128159       -2.11734847622861        0.59967759303454
O           -5.13997474657213       -3.37366139104861        0.56265019085601
C           -4.81747163361894       -4.26534271492172        1.60413666688115
C           -3.78549653676203       -1.61221069878425        1.55589456343606
C           -3.34312946954543       -0.29689650983289        1.49151880043322
C           -2.69252594109209        2.29300842638538       -1.01479466996042
C           -1.79014011837974        1.19124158932049       -1.60062095947621
C           -0.45672762374733        1.10111112454128       -0.95221255254926
N            0.14914940918667       -0.01855492606301       -0.57138768583307
C            1.39602499705337       -0.05318172114383       -0.11925603466761
C            4.44790179432464       -0.87317133274175       -2.80496698132924
C            5.40720275410850       -0.50175330153742       -1.89420679295283
C            6.00179972710870        0.79128142769179       -1.93167481084755
C            6.97372446016552        1.15417947454263       -1.03624300452194
C            7.41029317382680        0.26478266330215       -0.04852544714522
O            8.35806646155883        0.51423362923629        0.86215355792044
C            9.01840481751686        1.75939692121053        0.86629422042507
C            6.82044455556665       -1.03907080759433        0.02416805763283
O            7.30082098569039       -1.81543854910830        1.01807216459554
C            6.82552177193617       -3.13508338918243        1.14092642580497
C            5.85119548392691       -1.39769685770395       -0.87685945371327
C           -0.58061705692326       -1.27438014383188       -0.62888230031710
C           -4.51959324500069        2.91032652436523        0.64138978046235
C           -5.19802386893822        2.58672026418825        1.97043799553956
C           -4.18479725579639        4.39809842448383        0.58375638829092
H           -4.96804048743299        0.69501932476799       -1.28423834404577
H           -7.06264011297058       -0.17269275062046       -1.91570497929977
H           -7.19331248314653       -1.66360095624545       -2.87971023419299
H           -5.74685831682899       -0.63891610710186       -3.03424500353758
H           -5.13150817619417       -3.87688476403182        2.57746573132310
H           -5.36634492202564       -5.17923165219480        1.38626340816366
H           -3.74482046771113       -4.48417567389588        1.62704786591562
H           -3.45150167110803       -2.23442823881227        2.37045842435085
H           -2.69081063464942        0.06669657650462        2.27029619415286
H           -3.51594720424291        2.45411683182541       -1.71076094979668
H           -2.12361623073756        3.22198730410390       -0.95987817218092
H           -2.31978871432586        0.24173698685331       -1.57262194616488
H           -1.63295459065324        1.45253808220595       -2.65515984271374
H           -1.24530110702286        1.68626236621984        1.07229149341308
H            0.14004011244921        2.00106128030546       -0.91897562763390
H            1.82449730030596       -0.97799680546570        0.20562660317273
H            1.97125365500811        0.84962843869145       -0.07247110275883
H            4.12395284586784       -0.20332905726580       -3.57965142331045
H            4.01374572523780       -1.85589348541665       -2.78932597213784
H            5.68026919368427        1.48680197061377       -2.69081318911157
H            7.40933746738503        2.13930006225811       -1.09873786806251
H            8.31887814558695        2.58443264134025        1.03448861132246
H            9.56377273857861        1.92654546109216       -0.06769267763835
H            9.72540969069916        1.71156165067635        1.69343822362338
H            7.35856487048027       -3.56147093737316        1.98757490292181
H            5.75034976768496       -3.15574189560622        1.34208313429600
H            7.03995320660422       -3.72214109906200        0.24324393636840
H            5.40622224967306       -2.37914961263683       -0.84767343536301
H           -0.82200099221267       -1.52293443485416       -1.66217163368724
H           -1.50302981782903       -1.20233077446940       -0.05062608925115
H            0.03060496810103       -2.07193349324114       -0.21262473089243
H           -5.23450868665565        2.69406239525967       -0.16117461970843
H           -4.51807742111899        2.78594331153614        2.79301559886183
H           -5.50779178832678        1.54499861485703        2.01183544048647
H           -6.07945969049472        3.21122919485113        2.09086652571109
H           -3.48250499875097        4.65611930956518        1.37030280732815
H           -3.76666379162875        4.68433706956072       -0.37737791538393
H           -5.09393783146427        4.97379213299580        0.73606177775232
H           -1.42879900765250        3.04971790898129        2.96430594922408
