72
 energy: -99.651300038831 xtb: 6.6.1 (8d0f1dd)
N           -1.92150409705392        3.09744363619711        2.46378762137709
C           -1.79360865046480        2.34548064475620        1.46955041418187
C           -2.84404889597814        2.16317681476905        0.40883192766142
C           -3.34811359206460        0.72775093186906        0.44303195682593
C           -4.20108345280885        0.26675822414977       -0.56101076105719
C           -4.69738038884149       -1.02335925388500       -0.55351548117494
O           -5.54548354124446       -1.54381019314552       -1.48503657727287
C           -6.06789312073003       -0.69267860089852       -2.47312239786657
C           -4.32412345045774       -1.90926044471833        0.48208523526484
O           -4.85012459325882       -3.16288843731873        0.39970329295689
C           -4.59357538224619       -4.07136069998988        1.43938783829108
C           -3.47985946515322       -1.45255332585590        1.47539613031326
C           -3.00256641784009       -0.14696936644884        1.45630971859327
C           -2.14321296966565        2.44103882491059       -0.94625570074586
C           -1.16518246263339        1.34617557108011       -1.41725410813775
C            0.11946450568292        1.32002364790215       -0.64472201177615
N            0.79860849638893        0.23598663299874       -0.26879725511286
C            2.03164372196600        0.28445151317252        0.24907249585635
C            3.28434383695653       -1.23011436300978       -2.00276921567559
C            4.49164620810304       -0.93318469189697       -1.38504448759607
C            5.15570867117574        0.30791934879578       -1.55686585637897
C            6.35321899912368        0.57846798308808       -0.93571914141548
C            6.94032152262802       -0.35871097413884       -0.09476721137745
O            8.09402751119527       -0.17926474365833        0.60336439886602
C            8.77798358943492        1.03530475787947        0.45487845147307
C            6.31249463400305       -1.61642602614805        0.08515937318004
O            6.98250344064443       -2.47165788883111        0.91530569153949
C            6.47120713998657       -3.76143103396953        1.11075487084345
C            5.12418589776328       -1.88436726186344       -0.54306084347827
C            0.16921526621843       -1.06442259691947       -0.48379648932681
C           -4.06055287315768        3.11446691504415        0.57850785343708
C           -4.81802570505831        2.83154745315782        1.87547855547280
C           -3.68167537215450        4.59287250825285        0.51965424921910
H           -4.48566322252433        0.93550605992445       -1.35644633475081
H           -6.59280373697599        0.16348312433254       -2.03608482456070
H           -6.77632691769063       -1.29804484841032       -3.03686083050635
H           -5.28747315913530       -0.33165362185325       -3.15086651421417
H           -4.95597923236750       -3.69666862620581        2.40275851242761
H           -5.14088566952528       -4.97555201197381        1.17751890589722
H           -3.52730015912705       -4.30892854351159        1.51629133767358
H           -3.18783638058473       -2.10116932463891        2.28610694380903
H           -2.36725681192648        0.18159970571927        2.26410401825113
H           -2.91511154051957        2.56746903092140       -1.70835954026313
H           -1.60455555054774        3.38625104311305       -0.87599364468521
H           -1.67610309036553        0.38317036709069       -1.39137311602148
H           -0.95045447036662        1.56478252834374       -2.47369575640148
H           -0.88287282964156        1.77851072305891        1.26309666198402
H            0.64553062427024        2.25839762569692       -0.53707882709217
H            2.43606897937641       -0.58820659057557        0.72657756374554
H            2.47916342687302        1.23557112022577        0.49812076688035
H            2.88682987948728       -0.55402020044045       -2.73298147287011
H            2.85544808840335       -2.21834243699920       -1.96878137311490
H            4.70802930779449        1.05260273462781       -2.19635220949774
H            6.82180362059869        1.53760454787856       -1.09313522831523
H            8.17796484640026        1.88397969189876        0.79425025164647
H            9.08255291696612        1.21016105755819       -0.58050626206591
H            9.65829705807889        0.95399078970302        1.08730917730112
H            7.17581289321892       -4.25410196553771        1.78033502147681
H            5.48102029982586       -3.75510771128215        1.57392865721017
H            6.41718999108089       -4.32089073254507        0.17068910693488
H            4.63502958800412       -2.83673806558264       -0.41981189211638
H            0.05088198592394       -1.26889233725905       -1.55242437733561
H           -0.81466364370692       -1.10395532317074       -0.00963104029359
H            0.80003751748862       -1.83611815803213       -0.05358979317352
H           -4.74230826052619        2.91249599453202       -0.25592543862849
H           -4.19335361518374        3.07760853515836        2.72570544856583
H           -5.10753408675279        1.78509809929138        1.93847530909528
H           -5.71955841259289        3.43959557043883        1.91831230557914
H           -2.98042731892913        4.82784256322839        1.31170486233707
H           -3.24698075397237        4.85930160722646       -0.43994119250064
H           -4.57219760181707        5.20078529278300        0.66333875191465
H           -1.12175714518821        3.14135882215413        3.09040038343235
