  25
        -42.03743970
 C          3.5918181992        0.3500710288        0.8473459159
 N          2.2953260062       -0.0356103846        0.3311781904
 C          2.1563161108       -1.1076933730       -0.4533238732
 N          1.0086517767       -1.7206037974       -0.8765147408
 C         -0.2656465773       -1.8710492536       -0.5225959752
 C          1.2526561997        0.7673392048        0.7210056375
 C          0.2008623088        1.1902008652       -0.0578590657
 O          1.1084618106        2.1377626400       -0.0555413152
 N         -1.0594118489        1.1007039390       -0.3724544197
 C         -1.7696948377        2.2574328733       -0.9058218186
 C         -1.8379387870        0.0165073088        0.1062165359
 O         -2.9738767809        0.1978603941        0.4696036859
 N         -1.2745385081       -1.2703591552        0.0967600090
 C         -2.2173399682       -2.2526908702        0.6667184916
 H          3.6464730754        0.1279580171        1.9153653452
 H          4.3868924133       -0.1758849150        0.3277357449
 H          3.7173622097        1.4257854158        0.7146374685
 H          3.0692886358       -1.6204183927       -0.7193631139
 H         -1.0846239346        3.1014624914       -0.9540347334
 H         -2.1466702213        2.0239717679       -1.9011363283
 H         -2.6105846187        2.4902949566       -0.2532851552
 H         -2.2396775258       -2.1337345396        1.7507847710
 H         -1.8874045188       -3.2572361700        0.4108220838
 H         -3.2212271990       -2.0762409980        0.2796716402
 H          1.2615355638       -2.4735033168       -1.5209538657
