  25
        -42.13618047
 C          3.6619347378        3.5494333667        0.0690127867
 N          2.2417276416       -0.4313332334       -0.0242646673
 C          2.3424461637       -1.7261242017       -0.0169081814
 N          1.1174872514       -2.3403599683       -0.0068334891
 C          0.1945965166       -1.3462131093       -0.0079457647
 C          0.9176864841       -0.1454887112       -0.0194164698
 C          0.2346180280        1.1273768046       -0.0164881581
 O          0.7563299103        2.2202970806       -0.0245010907
 N         -1.1527589333        0.9747917365        0.0008357322
 C         -1.9651743524        2.1802883473        0.0152176179
 C         -1.8754485706       -0.2064118103        0.0038514556
 O         -3.0775019715       -0.2160955225        0.0109425456
 N         -1.1473337094       -1.4079423541        0.0004135385
 C         -1.8655717145       -2.6644181204        0.0036684937
 H          4.0909179967        3.8613740946        1.0007742549
 H          4.2541009287        3.5945127568       -0.8280436305
 H          2.6453919551        3.1975412739        0.0318250834
 H          3.2691709109       -2.2637886322       -0.0182725633
 H         -1.2998275679        3.0401456720        0.0114252044
 H         -2.6157414351        2.2009909927       -0.8595829366
 H         -2.5947191082        2.1917553544        0.9055850673
 H         -1.6128383056       -3.2443749422        0.8922902774
 H         -1.6296086494       -3.2391659259       -0.8929825797
 H         -2.9313646750       -2.4384664526        0.0142596627
 H          0.9483286676       -3.3351328442        0.0034309903
