  25
        -42.15100452
 C          3.3914147126        0.8733422987        0.0063966158
 N          2.4030373083       -0.1712239722       -0.0036758702
 C          2.6093536215       -1.4756248855       -0.0064527277
 N          1.4252360045       -2.1322046949       -0.0034267031
 C          0.4355228554       -1.1965617420        0.0020941031
 C          1.0497300431        0.0526531846        0.0017074230
 C          0.3299995915        1.2797626689       -0.0112880650
 O         -1.0947836126        3.3603405580        0.0189649298
 N         -0.9832305383        1.0601059283       -0.0076117082
 C         -1.8736131790        2.2231489185       -0.0186353073
 C         -1.6818573897       -0.1602279236        0.0015287749
 O         -2.8805071993       -0.2109535224        0.0035574987
 N         -0.8996896611       -1.3288562394        0.0045281456
 C         -1.5587659100       -2.6211148417        0.0056863425
 H          3.8880682073        0.9164928871        0.9763723768
 H          4.1384152203        0.6989253234       -0.7669799064
 H          2.8795662814        1.8197928787       -0.1722447155
 H          3.5686958576       -1.9543605230       -0.0113686639
 H         -1.6701825965        4.1315995240        0.0504150356
 H         -2.4887281126        2.1618840478       -0.9307893929
 H         -2.5419179891        2.1367150330        0.8522828397
 H         -1.2872534503       -3.1865259528        0.8975506698
 H         -1.2961933288       -3.1842278405       -0.8903472695
 H         -2.6330640449       -2.4410960393        0.0111649189
 H          1.3157238459       -3.1371194971       -0.0060489550
