25
 energy: 57.584811040153 xtb: 6.6.1 (8d0f1dd)
C            2.99560633866269        1.21345504787174        0.08341154499387
N            2.20387828449121        0.00780869405199        0.03920557635093
C            2.65552765035541       -1.26071437295933        0.10368847047835
N            1.56758333972910       -2.09663670344876        0.00182221475868
C            0.42920164982108       -1.32644005295129       -0.01474261649535
C            0.83687962094593       -0.01183796869939        0.02422981401811
C           -0.15927093408388        1.07684175407324       -0.06617393025413
O            0.24351203728007        2.21957398308613       -0.19146736841774
N           -1.42516163354513        0.68945686608211       -0.03591842080221
C           -2.23197394823808        3.40485055629204        0.03956083007980
C           -1.86327936239767       -0.55322786500718       -0.03289359367400
O           -3.01202595006965       -0.91214299991270       -0.03502905679520
N           -0.85279657565435       -1.67047240295764       -0.04482517817968
C           -1.26844070005550       -3.04446179915690       -0.07491769486575
H            3.07565014407245        1.59412709367034        1.10318897979762
H            3.98856647183939        1.02143229641062       -0.30516049615895
H            2.49169835321210        1.98524585935553       -0.49934952734061
H            3.66354520076494       -1.55428644777465       -0.14114448911700
H           -1.22973336395542        3.74227656280127        0.13437938449169
H           -2.68135943648484        3.36319837867295       -0.91901203151403
H           -2.84516792785383        3.28434204988585        0.89868973107299
H           -0.90350835631451       -3.56096177623333        0.81499069047829
H           -0.86715395275236       -3.53335409118718       -0.96505921757679
H           -2.36726659653220       -3.04397862024994       -0.08908122625509
H            1.61942058150991       -3.10335927872893        0.01050624853266
