25
 energy: 55.343850577378 xtb: 6.6.1 (8d0f1dd)
C            2.97243647758662        1.19706579028951        0.07552233379342
N            2.20271592029424       -0.02126382108211        0.04120381738960
C            2.66205910180890       -1.27074512048890        0.02457940951044
N            1.60462062135685       -2.13080994518416       -0.01204677977558
C            0.44780639794209       -1.37941094822771       -0.00660698265405
C            0.83535323005129       -0.05214656785335        0.04669556889414
C           -0.20504893411842        1.02715940929063       -0.04746705197811
O            0.13360805291042        2.19354320724987       -0.15407771410034
N           -1.44734721009165        0.56403979627420       -0.05286847699617
C           -2.30384766328231        3.73493124053439        0.04538877606797
C           -1.86099520478285       -0.67826468967163       -0.03905908691861
O           -3.00034035936271       -1.06680350672350       -0.03695639393170
N           -0.81692850789733       -1.77472402224771       -0.04143625815414
C           -1.21685196281308       -3.15465636047685       -0.07356360884815
H            3.10422453470705        1.53211816671955        1.10347710418444
H            3.92690679004014        1.05289783471510       -0.42469214245236
H            2.41342456505045        1.97010045758327       -0.44969306417114
H            3.69249300687118       -1.55905687305243        0.00822920286360
H           -1.28054529591126        4.02583993997976        0.13997308915182
H           -2.76642608015551        3.70247548349146       -0.91700891511301
H           -2.91760732029290        3.61789343291662        0.91334413794323
H           -0.87632526844517       -3.68427043359243        0.82124434777136
H           -0.83879851452820       -3.65878391418943       -0.96776862536145
H           -2.31258043594586       -3.13068096752052       -0.09531709450572
H            1.68842106802041       -3.13753708270374        0.00910978035162
