72
 energy: -99.650266413157 xtb: 6.6.1 (8d0f1dd)
N           -1.78203205017408        2.96679022606824        2.45301286395573
C           -1.67981967179440        2.19870845957224        1.46860510477363
C           -2.72528232145867        2.06027961649918        0.39546841916796
C           -3.32938885392210        0.66638769765054        0.46180951716008
C           -4.17011049822487        0.22189226712911       -0.56012581178340
C           -4.74720730440477       -1.03354806959010       -0.52740389197000
O           -5.58406322894387       -1.53912111630385       -1.47661909302199
C           -5.99530504308189       -0.70326698303259       -2.52768919447804
C           -4.47414633419746       -1.90030900721853        0.55475243426823
O           -5.07255013133333       -3.12258537815076        0.49161244532766
C           -4.88641018521632       -4.01603054445522        1.55901902990779
C           -3.64978441302035       -1.45605432213250        1.57110291696761
C           -3.08726865317441       -0.18478432390392        1.52400068550391
C           -1.97215540844670        2.24902545912092       -0.94749267697859
C           -1.10596436319280        1.05364011444072       -1.39036795775504
C            0.11944269507302        0.84048533755879       -0.55132246888009
N            0.59106384052482       -0.34350782726154       -0.14478085603459
C            1.79286504622483       -0.56779347100085        0.38486642706442
C            3.36574055781520       -0.40704566641803       -2.18072835668946
C            4.56957589216781       -0.33238528434901       -1.50250181283095
C            5.36776286009731        0.82332614107032       -1.59144441399556
C            6.57136380457445        0.92122922467291       -0.93325421857119
C            7.03968300739488       -0.11489249680757       -0.13333980658795
O            8.19070667116210       -0.10310587086835        0.59731457803383
C            9.01176819612871        1.03218726867571        0.55272866333330
C            6.27873921058104       -1.30934333186944       -0.04499605218726
O            6.83600980955009       -2.28153641275361        0.73383344894759
C            6.16615196010194       -3.50731763650017        0.85976686791875
C            5.08129946298429       -1.40524285970574       -0.70683290510866
C           -0.26478049594013       -1.50874058666440       -0.25872003139038
C           -3.88041059887408        3.09496080595968        0.51046152121625
C           -4.69855977768660        2.87646209790409        1.78191725295070
C           -3.39590388360319        4.54235066458572        0.45244945112361
H           -4.37787923516199        0.87754417183670       -1.38964471552577
H           -6.50181674216172        0.19330617063709       -2.15661262349788
H           -6.69533957009395       -1.29574311119706       -3.11468175587538
H           -5.15625787844088       -0.40559488243982       -3.16460343405636
H           -5.25599574171551       -3.60223203814175        2.50303268587496
H           -5.46560004275699       -4.90154953642594        1.30197631880442
H           -3.83467353789447       -4.29551054900879        1.67747291655315
H           -3.43898853023660       -2.08615493669817        2.42094197943964
H           -2.46792393590544        0.13715845534885        2.34688828599673
H           -2.70596408291515        2.45193559755441       -1.72946063201410
H           -1.33633756651396        3.13169472966470       -0.86946967360218
H           -1.72665830967888        0.16073181463109       -1.42565436859156
H           -0.79368357601643        1.26705250319439       -2.42279722930934
H           -0.79644896373232        1.57854482383334        1.26935329941792
H            0.80718366771293        1.67548731214023       -0.51289217771534
H            2.01436484809387       -1.50665367865974        0.85498073112452
H            2.37525521342691        0.31323225898587        0.60182852046666
H            3.05680768146795        0.38262030459764       -2.85439440894856
H            2.86756736420545       -1.36283793991669       -2.22341535711085
H            5.01672592309959        1.64066296550809       -2.19850701789510
H            7.15125117932534        1.82631865954151       -1.04049698736317
H            8.48965517730790        1.92403474948084        0.91170687473740
H            9.39586122259311        1.22211873059853       -0.45294380711126
H            9.84435669922744        0.81718076163219        1.22146639785507
H            6.79741033251873       -4.12588127300221        1.49342737692265
H            5.18414126851384       -3.39163501912818        1.33127619641936
H            6.04208724225596       -3.99948543942943       -0.10890868907718
H            4.49823437681285       -2.31098909765668       -0.64312313515851
H           -0.41448534463034       -1.78242954255852       -1.30583275620257
H           -1.23177136731726       -1.31090245189023        0.21040132940270
H            0.21220993952860       -2.34142898330700        0.24971268398011
H           -4.54025621235616        2.92764637517216       -0.35043609289360
H           -4.07561161176872        3.04836214283333        2.65177023097584
H           -5.09107147725763        1.86314833049368        1.82280459329002
H           -5.53453016512274        3.57242535284095        1.80634413725249
H           -2.72342168756771        4.74246996405412        1.27906349586379
H           -2.88772969474904        4.76012731582788       -0.48356184929464
H           -4.24847907515003        5.21242009785779        0.53572692163799
H           -0.99373564050083        2.98297565128109        3.09537885754369
