72
 energy: -99.406455246722 gnorm: 0.008045933035 xtb: 6.6.1 (8d0f1dd)
N           -1.87202409816264        2.78532625692882        2.22353891574047
C           -1.83103341402895        2.11485750012064        1.17125255338981
C           -2.98811383362500        1.91120667832430        0.23332226293178
C           -3.46784966443462        0.46931487739640        0.31884341046427
C           -4.42310990259704        0.00377057713122       -0.58717365448531
C           -4.89894872236357       -1.29554695439700       -0.53402714163103
O           -5.82789703625350       -1.82039915174009       -1.35912120064258
C           -6.46346493947078       -0.98931775583616       -2.30171709652736
C           -4.39558709933721       -2.18565166378517        0.45316346719850
O           -4.90642663267614       -3.43271953579786        0.42334847946126
C           -4.51777194748406       -4.35645565364441        1.41294140699329
C           -3.44855684005973       -1.71743379827267        1.34939349632086
C           -2.99432765684765       -0.40558819642103        1.28402089746692
C           -2.44140729060922        2.19370188362616       -1.19032698724037
C           -1.50148506463264        1.10316233704192       -1.73675640762492
C           -0.16812787962251        1.09616488151828       -1.09351565530576
N            0.49100934667339        0.01577124309171       -0.69067650470378
C            1.86937766252915        0.11612979118048       -0.27200600698604
C            2.84030052890081       -0.34336720501627       -1.37665756791562
C            4.26008882148232       -0.13111668608603       -0.92974692180946
C            4.90310928326275        1.07576046861231       -1.14859214489148
C            6.20426973534431        1.28421754597569       -0.70900926194017
C            6.88757396820565        0.28521973762166       -0.03401578335461
O            8.14172643936142        0.35472797964416        0.44339098684810
C            8.90928872618760        1.52169545860268        0.23793634316013
C            6.23467300770224       -0.95924580558316        0.19419037194692
O            6.97792333972819       -1.87524024123990        0.84645833651385
C            6.44099258282413       -3.15295549601818        1.09083524103470
C            4.93658305976445       -1.14322593362389       -0.25235240931049
C           -0.10779071183699       -1.29714680848942       -0.70314442406557
C           -4.19199155556448        2.85138882598102        0.53848574683142
C           -4.82450314542199        2.52509679261635        1.88930616684047
C           -3.82418496662114        4.33159689249511        0.48360615291431
H           -4.81213161564094        0.67306140841931       -1.33627542193376
H           -6.96924688022618       -0.14823946386840       -1.81804090873020
H           -7.20252993332919       -1.61884365274780       -2.79338598607631
H           -5.75715605345180       -0.61301016872914       -3.04888935579167
H           -4.75968852599483       -3.99448743765246        2.41653255820108
H           -5.08792128042358       -5.26044722489420        1.20831514132397
H           -3.44815701653888       -4.58223696267667        1.35337863994772
H           -3.06195636054639       -2.36434235249447        2.12011391685345
H           -2.28095022706049       -0.06914446197737        2.02049364815332
H           -3.28269911007259        2.28814319038575       -1.87580205636889
H           -1.91326465262722        3.14782201505315       -1.18339102504646
H           -1.98848449988864        0.13195754274845       -1.66822347942372
H           -1.34767995092326        1.32575071241202       -2.80067749153458
H           -0.91219995981035        1.62715453517144        0.78856505049300
H            0.38478735830378        2.02436799683646       -1.09100619446423
H            2.01901670653063       -0.49664614027017        0.62112303272346
H            2.09470692537848        1.15327421961176       -0.01511821653998
H            2.64164664036497        0.23466733734902       -2.28150989083064
H            2.66930165708233       -1.39836220825590       -1.59669627352457
H            4.39805912567936        1.88614352048414       -1.65632845396154
H            6.66125689927049        2.23634272365118       -0.89115350163024
H            8.46806398314813        2.38830679805075        0.74176317076389
H            9.03019063728103        1.74140049024766       -0.82723468332119
H            9.88332774273223        1.30349296890101        0.67735809036559
H            7.22849530562312       -3.70837996634641        1.59638654378350
H            5.56151615303843       -3.10062844987414        1.74057956470765
H            6.17954066625730       -3.66305010076173        0.15861118846529
H            4.43969782504790       -2.08705593031137       -0.08996291090072
H           -0.25720169126354       -1.65438757562168       -1.72428291893305
H           -1.07380688164435       -1.28079172836927       -0.19199273374194
H            0.54589026672529       -1.99374891480230       -0.18447619444199
H           -4.94080962535998        2.66135213997891       -0.23864739701874
H           -4.11486320093963        2.71567034110548        2.68781190091540
H           -5.13726889447037        1.48480581253137        1.93565489052660
H           -5.69794321296417        3.15291311224377        2.04408728357113
H           -3.05494144159885        4.55824916813786        1.21545132205093
H           -3.47976113602261        4.62822883152002       -0.50366638954265
H           -4.70236986637704        4.92596325797529        0.72141992415794
H           -1.01826437860509        2.87517529738104        2.76518539172998
