72
 energy: -99.576166373922 xtb: 6.6.1 (8d0f1dd)
N           -2.51868843007175        3.24790094240692        2.62493617850124
C           -2.29286474065404        2.22750077176089        1.94948596025394
C           -2.97534701791205        1.99339613908825        0.66421625017631
C           -3.61611146172147        0.67823539650644        0.59723171959749
C           -4.10138712730896        0.13977246877997       -0.54794853848446
C           -4.67360087788321       -1.09262120497335       -0.60768443358408
O           -5.24726170267099       -1.71268547511191       -1.63340464075201
C           -5.22550889549764       -0.86893524257871       -2.67391584113424
C           -4.80314784712493       -1.87644773398582        0.48336533270848
O           -5.44405453570540       -3.04240894678343        0.21949450186585
C           -5.51690924976982       -3.86274322228965        1.30498661766368
C           -4.29604616234149       -1.33144812476015        1.60587992407394
C           -3.70724699590541       -0.09916945526410        1.67737047879306
C           -1.76610924506657        2.01958012894670       -0.17633364105167
C           -1.09845302892706        0.84557763577126       -0.87515525154000
C            0.25815539380801        0.89049893529263       -0.29160517852318
N            0.91927090174528       -0.18698920483182        0.18581243305208
C            2.32365818689028       -0.12899150850541        0.16980786062261
C            2.98637910103538       -0.59524972989518       -1.12071085132346
C            4.45132034019491       -0.45247368321914       -0.94902184634783
C            5.09217576194490        0.74143824450092       -1.19800801635922
C            6.44632763779213        0.87154323290024       -0.93066938359764
C            7.18088729758493       -0.17100000398995       -0.37644349840131
O            8.51060349301104       -0.15759007412697       -0.04961411031778
C            9.21883666486745        1.00797207536776       -0.35204841991703
C            6.51819999237660       -1.38541562125597       -0.11971419939185
O            7.29516499021033       -2.37468837100269        0.40568003887392
C            6.69358243458756       -3.60794948139012        0.67177662496620
C            5.18564321877354       -1.51355920220623       -0.44030699297346
C            0.25659614393097       -1.44966461838271        0.14045716621754
C           -3.94006870676589        3.08831010639135        0.31433692259596
C           -5.02146451778446        3.01013540709693        1.33052450952624
C           -3.35560458839417        4.48521834240991        0.34249739160250
H           -3.95743147398475        0.74473075998939       -1.37614043112448
H           -5.61490252310456        0.10237990043848       -2.36146416253658
H           -5.92534805745001       -1.36309253434530       -3.37587483246722
H           -4.20583573513493       -0.59569268726419       -2.90250928450923
H           -5.99733299370066       -3.28094357498718        2.06261515328531
H           -6.05610039010208       -4.76317641046291        1.02487746631319
H           -4.54191694384730       -4.08658708901284        1.69908961997637
H           -4.15893686454829       -1.95386739479450        2.40909282619976
H           -3.10281064822362        0.30541191669135        2.43000796758738
H           -1.78176471798869        2.63669197231379       -0.98453463496166
H           -1.10454387310115        2.45056810977250        0.58137004548441
H           -1.59544082534643       -0.09707496147589       -0.67798035946380
H           -1.03227017292021        1.02275186509429       -1.92931678656338
H           -1.47591139445854        1.54097518729443        2.13018209089181
H            0.79321375805460        1.81892662812435       -0.39224376456330
H            2.65952329351485       -0.75383205491433        0.99678865040237
H            2.60800027138492        0.90809144324815        0.34097569621074
H            2.61785204211774        0.04381951270695       -1.91001768064670
H            2.70919876781895       -1.62809383620551       -1.31695355727068
H            4.53976471960244        1.58221073661690       -1.58257579301835
H            6.90156158629765        1.82010242767466       -1.16017316294102
H            8.82458804836388        1.88005889195756        0.14867145104722
H            9.12790716440788        1.26824119987561       -1.41606428513917
H           10.24739527809746        0.83277318487318       -0.03630422245189
H            7.44095327579929       -4.25931762189150        1.05571720185758
H            5.89774063386027       -3.53183920762169        1.39364705010645
H            6.23996268723207       -4.07079301225965       -0.21083809839441
H            4.71056642358798       -2.45059337615135       -0.24550019816622
H           -0.07290816846315       -1.74935132727681       -0.88391122958545
H           -0.58841021410750       -1.38182406030825        0.81004337807244
H            0.87850043301230       -2.20152616299538        0.60059843159229
H           -4.36289670356038        2.83497548280775       -0.64075034720693
H           -4.48646836582235        3.27987947927700        2.19865256604506
H           -5.45828244159812        2.03018728521674        1.33675583283250
H           -5.74971123734963        3.74179693092129        1.14107950690882
H           -2.80278763326001        4.69885033828956        1.23268882158074
H           -2.68960898341901        4.62027665463607       -0.49045307815981
H           -4.16341730801656        5.19528424722935        0.32290788238137
H           -1.92255380773555        3.28333912222106        3.41086077953269
