25
 energy: -42.175674440124 gnorm: 0.004919371335 xtb: 6.6.1 (8d0f1dd)
C            3.23611168784999        1.20508326756626       -0.02904606962993
N            2.33018062180370        0.08898905321414       -0.05408141662513
C            2.66040492506967       -1.20948086174042       -0.07634242694213
N            1.53646858580740       -1.96752548645709       -0.05546593912172
C            0.46165494295709       -1.12180790656643       -0.01836349337556
C            0.95713107668929        0.17812220741848       -0.01631624127656
C            0.10792092985304        1.33483720708716        0.02079521816658
O            0.44068371862900        2.50175833907941        0.02652583557814
N           -1.25149589415271        0.94344559644942        0.04560007801592
C           -2.25035725348272        1.99837775758452        0.07072280827179
C           -1.69443059325382       -0.33167566968729        0.03053801527891
O           -3.01010238417419       -0.51183173939479        0.01062368897741
N           -0.87464369708971       -1.42599192695538        0.02562409309738
C           -1.35280899302665       -2.70101031910262        0.01511641279323
H            3.75430004528038        1.25089929680002        0.93029905636489
H            3.97487032954683        1.11106501025833       -0.82406447785544
H            2.66225289470837        2.12105208076014       -0.16355050831280
H            3.65754665792723       -1.59671595178381       -0.10704370122773
H           -1.71704975108352        2.94687472366972        0.07349655146946
H           -2.88966552784785        1.93107686866721       -0.80830371068033
H           -2.86608601433715        1.91071735018099        0.96405358472669
H           -2.33446498693768       -2.92478586267981        0.37700944761144
H           -0.67026135919063       -3.50001301545622       -0.14440857436113
H           -3.22118651110970       -1.43750053458099       -0.20415590030012
H            1.51345806366488       -2.97572094273106       -0.05809071274305
