  25
        -42.15252235
 C          2.9863212067        1.5551114831        0.1165449084
 N          2.3249355083        0.4941244729       -0.0553492373
 C          2.5660830014       -2.2559724884       -0.1418098523
 N          1.2681751297       -2.1380763431        0.0460103602
 C          0.4786620122       -1.0112998639        0.0155636310
 C          0.9886999565        0.2876046097       -0.0038869051
 C          0.0653142937        1.4355412462       -0.0052914042
 O          0.4500928793        2.5841214538        0.0099914963
 N         -1.2769324278        1.1128041179       -0.0160933340
 C         -2.2499387694        2.1961284799       -0.0383878023
 C         -1.7985668356       -0.1589141911        0.0033491192
 O         -2.9809812211       -0.3683695914       -0.0022164557
 N         -0.8734404126       -1.2175555788        0.0308051715
 C         -1.4457632299       -2.5537792379        0.0276159675
 H          3.1565931239       -1.3883106232       -0.3751673686
 H          4.0495718380        1.5232173333       -0.0739382811
 H          2.5511235211        2.5015155435        0.4428956701
 H          3.0099204530       -3.2316011666       -0.0595492998
 H         -1.7090856852        3.1394141108       -0.0489365514
 H         -2.8762678951        2.1081173609       -0.9260638082
 H         -2.8904350750        2.1364618935        0.8415833438
 H         -1.2427649637       -3.0774131682        0.9644703623
 H         -1.0991967170       -3.1307088847       -0.8310791896
 H         -2.5274032593       -2.4330048473       -0.0574235583
 H          0.7465538508       -2.9939597991        0.2385497364
