25
 energy: 56.099837112900 xtb: 6.6.1 (8d0f1dd)
C            3.47044038841840        0.90542914179647        0.17785118893057
N            2.51164889181429       -0.14890562073700       -0.00572626985101
C            2.82077717118404       -1.43010428462260       -0.08372489040704
N            1.69012859283838       -2.17598458886710       -0.11945470486804
C            0.61646992316788       -1.31018796648543       -0.03742092959543
C            1.15717857638048       -0.02896758746770        0.02404436617010
C            0.28757905215974        1.14420166089308        0.24090772729912
O            0.74643351230930        2.26665031748078        0.38839982237762
N           -1.01299380641162        0.82563835983212        0.29592393560943
C           -3.57616319322841        3.46459131089491       -0.45991591123797
C           -1.61238875399250       -0.31250204777042        0.22028545303628
O           -2.75760858001904       -0.63381907024041        0.34630154439483
N           -0.67387880522727       -1.55836149367856       -0.01929009401125
C           -1.20792213297048       -2.88220288755793        0.00863846383964
H            4.00271554354194        0.69906489459031        1.10266573323504
H            4.18897478481646        0.90670944768017       -0.64522379002405
H            2.96748152869244        1.86586331922066        0.23376634932551
H            3.79416314982588       -1.81575692265145       -0.24091166577523
H           -2.72891116396909        4.11131173983517       -0.37217228129145
H           -3.94380132168372        3.16500221391429       -1.42101623860265
H           -4.00810789144265        3.07377795334068        0.43521563281806
H           -0.70545141127316       -3.48408976944411        0.77443392915336
H           -1.06746224657212       -3.37416588044446       -0.96244020813150
H           -2.26845653773949       -2.81547274898104        0.24522615292637
H            1.67030629274758       -3.17918131389045       -0.21330839243257
