25
 energy: 28.407231203881 xtb: 6.6.1 (8d0f1dd)
C            3.35173762004959        1.08306030812747        0.13325746783400
N            2.35635657490381        0.05920464825014       -0.00029957891680
C            2.63762783697506       -1.29835116424721       -0.06923429523289
N            1.44313363580576       -1.97212171945287       -0.13529605254061
C            0.43776962074626       -1.07493446608279       -0.06576620166632
C            0.93767370640671        0.21646173872828        0.02154674137489
C            0.06921050733442        1.37753905949112        0.09268000085910
O            0.46224523824455        2.53345270288072        0.24480309503322
N           -1.43768755234013        1.15642901139659       -0.05361547388533
C           -2.56131138101432        2.39424368878641       -0.25088450808236
C           -1.86578887310418       -0.15337318837260        0.06187427959190
O           -3.02724738805181       -0.48899342073718        0.15518799629288
N           -0.90482963854236       -1.27020516841968        0.01500447201771
C           -1.34947442635002       -2.65474170332158       -0.01156394968761
H            3.88711609366498        1.03099371924967        1.09110953820285
H            4.09463974585623        0.97507147517616       -0.66536831437396
H            2.86730100225784        2.05169892200183        0.07425116157254
H            3.60442444863894       -1.74978304713650       -0.12110760426904
H           -2.03602105438312        3.34880126774857       -0.23652052926426
H           -3.14806469951265        2.36714079271005       -1.18332047812879
H           -3.24234650915419        2.38700398737129        0.59432593591073
H           -0.92786622083328       -3.23370054379351        0.82062410493347
H           -1.00963085427370       -3.12776623663718       -0.94050048241195
H           -2.43642945203090       -2.68168362621810        0.04682172846388
H            1.37898138907270       -2.97394877386278       -0.22017892442077
