25
 energy: -2.343883625332 xtb: 6.6.1 (8d0f1dd)
C            3.28216325705286        1.14998287615749        0.10388844359363
N            2.32132871914104        0.09659835804012        0.03593760345906
C            2.61443555030613       -1.25699386222054        0.01223287060198
N            1.42375771267765       -1.95002047852702       -0.03577657688800
C            0.41351981271026       -1.05976023952057        0.00789130844830
C            0.91816669450428        0.23217985377814        0.05927993802488
C            0.08581252472080        1.38598491388974        0.04815957174349
O            0.47667387407230        2.55713076566673        0.07520970940670
N           -1.34214621397567        1.09108441827861       -0.01173630232151
C           -2.32895981522317        2.21964479330038       -0.11485975748642
C           -1.83914972907097       -0.18505290948522        0.00217456059130
O           -3.02903936563306       -0.42674566951698       -0.00310266471042
N           -0.93126177165547       -1.28424651304140        0.01453063329816
C           -1.42969442287588       -2.64592979410413       -0.04247831316886
H            3.78448961954339        1.16880325818547        1.07777437665739
H            4.04182414434840        1.02502349483252       -0.67370961668641
H            2.75212490313912        2.08644132397128       -0.03554765446687
H            3.59008306660526       -1.68743658733102        0.00498597043101
H           -1.78692483664873        3.16606525227215       -0.09600156953057
H           -2.93114036287095        2.19003510259136       -1.02422698800780
H           -2.99906126929362        2.18905699976214        0.74601703836666
H           -1.09336048518869       -3.21921813174370        0.82637536788209
H           -1.09667366413170       -3.16018001327037       -0.95120288248193
H           -2.51640315122540       -2.59464339525774       -0.03697628907064
H            1.35494671571613       -2.95489262898333       -0.07882427996949
