25
 energy: 2.677096482544 xtb: 6.6.1 (8d0f1dd)
C            3.29884947657979        1.13393438088926        0.11112853406475
N            2.32758609402729        0.08750295806577        0.02881181785316
C            2.61821085473178       -1.26908766197706       -0.00432312786848
N            1.42248304496249       -1.95499557452549       -0.06369570628635
C            0.41621996735275       -1.06025174516071       -0.00629849117288
C            0.91820409877209        0.23146675726225        0.06412805254875
C            0.07031983002410        1.38666876496147        0.07555886745231
O            0.46563967309593        2.55482324714646        0.12117764491958
N           -1.37959856760124        1.11409467249636       -0.00312931796059
C           -2.38516262795886        2.25820953199778       -0.15364071478136
C           -1.85166165967682       -0.17605897945634        0.02693675023035
O           -3.03543547399586       -0.44465163169617        0.03311684972833
N           -0.92945263238533       -1.27445532756894        0.03587108025083
C           -1.40856813792393       -2.64647300893539       -0.03317962594149
H            3.81095348108334        1.13673785155210        1.08101095735546
H            4.05471375249175        1.01501543623851       -0.67252229353700
H            2.77934526943412        2.07859494529946       -0.00760514898765
H            3.59244105221917       -1.70652631419092       -0.02279624849653
H           -1.84275977795922        3.20490333342400       -0.13668825323565
H           -2.97927500996770        2.23554469046126       -1.07240410716858
H           -3.06110332701911        2.24414200399628        0.70412662315215
H           -1.05012488491450       -3.22366883792910        0.82507982498003
H           -1.07159675449573       -3.15093681129430       -0.94751668101010
H           -2.49583990171752       -2.61951897702648       -0.01583036860897
H            1.35176351148684       -2.95967251064892       -0.11617436102519
