25
 energy: 55.258183334696 xtb: 6.6.1 (8d0f1dd)
C            3.47173039112667        0.91503285671992        0.16162222026713
N            2.51292106507565       -0.14925145307040        0.01957597936405
C            2.82087585742062       -1.42658105464426       -0.07071961585754
N            1.68912588868521       -2.16785827528281       -0.11300988936096
C            0.62336921357758       -1.31296757755657       -0.02203013794247
C            1.15307122049273       -0.02775753036877        0.05795183294844
C            0.26514773918230        1.14140381515649        0.23591504062808
O            0.71821962665614        2.27408969484357        0.30772741493012
N           -1.04146844586567        0.83563661490421        0.30599624165151
C           -3.71196838267504        3.64335323947972       -0.43953156981477
C           -1.60123728595559       -0.33127799701431        0.21387481732107
O           -2.76152279991592       -0.62711441831419        0.27044972176587
N           -0.66829439972432       -1.56234026738448       -0.00682333381083
C           -1.20153757569148       -2.89640355165333       -0.00462607829035
H            4.01199201378328        0.77036531767254        1.09308470069806
H            4.18614257243506        0.91113924760564       -0.66364861178320
H            2.93830558326480        1.86584886833388        0.17487063879035
H            3.80023055929193       -1.80975785026883       -0.21969151894961
H           -2.84676725410525        4.26631785237438       -0.37132696732073
H           -4.02404288288792        3.28185565168814       -1.39108470616188
H           -4.13371605896980        3.21577721249522        0.44733916950249
H           -0.76345951824166       -3.49990680747358        0.79031552718673
H           -1.03744040703884       -3.39246658360240       -0.96787349515361
H           -2.26771103797866       -2.81551949019573        0.18447624917489
H            1.67309126581653       -3.16906318091086       -0.20550669452578
