25
 energy: 58.368987193489 xtb: 6.6.1 (8d0f1dd)
C            3.44193533242251        0.96627523914127        0.18495131828283
N            2.43743677936842       -0.05971263267764        0.02040625348214
C            2.73238883004998       -1.34056564099592       -0.11015876821561
N            1.59720974563809       -2.07657091601679       -0.15180934373657
C            0.53861417759450       -1.20345720214572       -0.05227902973663
C            1.07663800351065        0.07242340990061        0.03368483713554
C            0.17641634894482        1.24713513508837        0.18628530545558
O            0.62820651158548        2.36679349989607        0.38732949181400
N           -1.14459677668404        0.96352431432320        0.13117100664882
C           -3.20044676814401        3.05318300929488       -0.39289502573070
C           -1.70816875933143       -0.20683421571284        0.16647509173461
O           -2.85236604034012       -0.53665188776262        0.35273271668076
N           -0.75872598420756       -1.42666581356594       -0.01237534671250
C           -1.24728690070916       -2.76855473330773        0.03003934077658
H            3.98246542495548        0.80312193342160        1.12065595259981
H            4.16093885467276        0.88407424078403       -0.62966097558769
H            3.01324028750357        1.96004306335980        0.22536900073300
H            3.70160601896726       -1.71477152458141       -0.28222693216961
H           -2.43466817719512        3.76912472509985       -0.31655580508987
H           -3.61184004672988        2.83031395149816       -1.34013184193348
H           -3.69790074422334        2.72246714943159        0.47197804414965
H           -0.70775703417436       -3.29445114975793        0.81976680398414
H           -1.05313758677388       -3.26416572701162       -0.92530736399065
H           -2.32475621883985       -2.78368748186125        0.19977405220308
H            1.58201133389415       -3.07734045834440       -0.23021245944175
