25
 energy: 57.447801549526 xtb: 6.6.1 (8d0f1dd)
C            3.46715821358454        0.92692109616592        0.20154806042287
N            2.47487826782621       -0.09865142533778        0.01784348759749
C            2.77217150478863       -1.37864756477698       -0.10831738547283
N            1.63964962925641       -2.11791118166968       -0.14571111082150
C            0.57668080461981       -1.24173610956352       -0.03946873727323
C            1.11906170558840        0.03159357896838        0.03686583069916
C            0.23057204263177        1.20370769982784        0.19587397632870
O            0.67222946087244        2.32412902098637        0.37740353835396
N           -1.08257991471741        0.91478801576231        0.18822845061471
C           -3.35225470492624        3.21993098910756       -0.41845388580037
C           -1.66159716991599       -0.23916639105708        0.19742237325780
O           -2.80374795967137       -0.55634368209381        0.36461949298787
N           -0.71814314097016       -1.47681520230703       -0.00877524716391
C           -1.23022308029729       -2.81195117789543        0.02654297152684
H            3.99231977600071        0.72583857645538        1.13448584482136
H            4.17639733182807        0.87283375206837       -0.62542076271320
H            3.02541749721150        1.90956118204464        0.27035461047669
H            3.75283252137177       -1.73444623721426       -0.25003525059951
H           -2.55883224358415        3.90785807734711       -0.33639601026321
H           -3.74421475510061        2.96803506840629       -1.36785665104599
H           -3.82438193237729        2.86307211194915        0.45418280105649
H           -0.70313723500633       -3.37225285110007        0.80000597724502
H           -1.06815645429900       -3.30518105841724       -0.93883286349013
H           -2.29925096805016       -2.80308670044126        0.24932417378585
H            1.62213389061866       -3.12297359919650       -0.22532499738182
