25
 energy: 58.243448185958 xtb: 6.6.1 (8d0f1dd)
C            3.42942547752268        0.98669927017695        0.17404936413172
N            2.42432328849390       -0.04075042602095        0.01701097672389
C            2.71376490577026       -1.32645274743087       -0.10207061836623
N            1.57350605506117       -2.05677564157504       -0.15231887996353
C            0.52037628718643       -1.17960304385156       -0.05668002447646
C            1.05849626682381        0.09436340330458        0.03127883322615
C            0.14817162445643        1.26695477555432        0.17468174866145
O            0.59717846981930        2.39070932588688        0.37305893989636
N           -1.17624380409292        0.98516087034613        0.10864949422291
C           -3.12140364193388        2.96488783333920       -0.38359224072227
C           -1.73061410773555       -0.19578068239463        0.15284776700870
O           -2.87987733834609       -0.52306636906482        0.32721754036086
N           -0.77946814418561       -1.40129620466549       -0.00989693199745
C           -1.25824055884131       -2.74649191322647        0.03069911509244
H            3.97124701391179        0.84230977932875        1.11347612237141
H            4.15022755629657        0.89640416899407       -0.63992046127743
H            2.99617716712857        1.97995417417602        0.19673643905598
H            3.67484673482145       -1.72764438185729       -0.26656649782548
H           -2.37489740811874        3.70120499546423       -0.30936529820266
H           -3.54646106005192        2.75644904903488       -1.32882803836354
H           -3.63176588246845        2.65764520660419        0.48064704338501
H           -0.73142077836774       -3.26417544791021        0.83471793671968
H           -1.04436174282937       -3.24289606723069       -0.91943760111822
H           -2.33917142825561       -2.76790040010454        0.17342725499819
H            1.55035860561838       -3.05687235667623       -0.23253100747419
