25
 energy: 50.842954568723 xtb: 6.6.1 (8d0f1dd)
C            3.36895027738953        1.06486669000049        0.14054872702176
N            2.37419295786324        0.03517903128238       -0.00547251848714
C            2.64888212667818       -1.29860014260000       -0.08824761566561
N            1.46935220035251       -1.99083820081615       -0.14646320941849
C            0.45305240399848       -1.09307581469977       -0.07595328054400
C            0.97310059841351        0.18459113066744        0.00805601365550
C            0.07338431955597        1.35142718670510        0.11859889157803
O            0.48349753285947        2.49563838672640        0.28514533972690
N           -1.33163966171783        1.08554637324086        0.01224554576068
C           -2.73074224438059        2.56830543011767       -0.30344017726309
C           -1.82843268818199       -0.16722572732931        0.09000458107014
O           -2.99012479542200       -0.49591832321161        0.19577075075762
N           -0.86977721583148       -1.30653527040952        0.00645087906388
C           -1.32600620636899       -2.67655143989806       -0.00123498962053
H            3.90703898508551        0.99550502096072        1.09498956804792
H            4.10746449718810        0.96140218826117       -0.66087122847393
H            2.89251817959433        2.03891585506064        0.10014371469622
H            3.61203401366213       -1.75575429419788       -0.15345901102818
H           -2.11283294015166        3.43830872142310       -0.26718879655821
H           -3.25601074328086        2.45879679931334       -1.23549402434339
H           -3.33177495390762        2.45248512912871        0.56674563447701
H           -0.88786753592793       -3.24554609676722        0.82626309850283
H           -1.00498412739641       -3.14792057749964       -0.93244318803265
H           -2.41424444437212       -2.69752600562982        0.07080142773932
H            1.41306162774456       -2.98782767747117       -0.24744681243380
