25
 energy: 56.964935225501 xtb: 6.6.1 (8d0f1dd)
C            3.40137860973717        1.02779358098507        0.15675306415265
N            2.40224244515844       -0.00454768034352        0.00465912940922
C            2.68109157775630       -1.30518319485548       -0.09084672689872
N            1.52731948316272       -2.02231926428329       -0.15233483974540
C            0.48774928942262       -1.13621569450785       -0.07394225546931
C            1.02255265496709        0.13648517540319        0.01752329085124
C            0.10229995181641        1.30674902834574        0.14488552633544
O            0.53732055069071        2.43898170892228        0.33633335518666
N           -1.24115408492158        1.02693606222181        0.06365300694021
C           -2.94828449652063        2.78697408140735       -0.35675475659264
C           -1.77880505861124       -0.17842179952808        0.12408342511493
O           -2.93450295138382       -0.50589737928633        0.27118104627222
N           -0.81928242620871       -1.35702911132441       -0.00497040583973
C           -1.28858229914793       -2.70973707324593        0.01597665897840
H            3.94637453013264        0.92146073496664        1.10227109451192
H            4.12917615981658        0.93085721930843       -0.65263374398241
H            2.94423707517313        2.01204865426092        0.14983910120841
H            3.63461282579138       -1.75330804195991       -0.22061590627024
H           -2.24719325044484        3.57182806969198       -0.29165671432367
H           -3.41062256847616        2.61328951730416       -1.29524464205918
H           -3.48686051550484        2.54726502681085        0.51151744481983
H           -0.80907071536902       -3.25676874397184        0.83224269262425
H           -1.02743199706770       -3.19659698688386       -0.92477862091285
H           -2.37512453215121       -2.73151439680547        0.12240620937971
H            1.48526126176413       -3.02092455300455       -0.24077315830479
