25
 energy: 18.117023584204 xtb: 6.6.1 (8d0f1dd)
C            3.33277034888356        1.10061562503919        0.12608813735134
N            2.34304969657616        0.06988659894883        0.00928429438727
C            2.62852860318689       -1.28872668470425       -0.04547352918357
N            1.43080133477616       -1.96357519932123       -0.11745230369824
C            0.42679076586963       -1.06519834934100       -0.04932127175770
C            0.92508783959482        0.22700923121846        0.03338965504075
C            0.05556333984295        1.38813155181052        0.09113092372709
O            0.45345173089289        2.54709933163023        0.20649021375799
N           -1.44337761184728        1.15725180229279       -0.03481806766921
C           -2.50426842047928        2.34494054445411       -0.22571294447674
C           -1.86957307961152       -0.15694168077808        0.05583693625397
O           -3.03736212718325       -0.47796959496772        0.11673538012521
N           -0.91673050036133       -1.26551721790000        0.02574881025652
C           -1.36966561470624       -2.64971629166447       -0.01813647534850
H            3.86182863188312        1.06749641422783        1.08792969003774
H            4.08051385829278        0.98906067148243       -0.66770668806670
H            2.83702715674873        2.06180816108464        0.04735371408129
H            3.59864952579507       -1.73579259225335       -0.08860238062955
H           -1.97149559569585        3.29766964680202       -0.21002071858151
H           -3.08906762050129        2.32198394386532       -1.15719999397936
H           -3.18231989411597        2.34132569337510        0.62593453234246
H           -0.96928216228312       -3.23099303912424        0.82214158750247
H           -1.03080099730078       -3.13356155926261       -0.94311764440956
H           -2.45695144541189       -2.66111315029130        0.02671877521236
H            1.36155461743199       -2.96728052992054       -0.19169908606372
