25
 energy: 56.929898097377 xtb: 6.6.1 (8d0f1dd)
C            3.47143083035860        0.91655992215286        0.20110430296856
N            2.49230304273267       -0.11828727927783        0.00936234799934
C            2.78844757511126       -1.40091009577985       -0.10591268021838
N            1.65332656237743       -2.13952585391318       -0.14533828238526
C            0.59267437160217       -1.26260583768837       -0.04158878146091
C            1.13880087654844        0.01255176090089        0.02576122944308
C            0.25538544137977        1.18269567703433        0.20572092680543
O            0.69969934975637        2.30064453161645        0.40074883648786
N           -1.05284546082146        0.88301304592717        0.22488387189222
C           -3.42308007595439        3.30379778094359       -0.43064724672637
C           -1.64205526357074       -0.26413639604674        0.21540590528229
O           -2.78191856546462       -0.57863570996191        0.39130011333203
N           -0.70129933331485       -1.50284751471202       -0.00767517428726
C           -1.21912249186799       -2.83558366030944        0.02190361253792
H            3.99285481205299        0.69708783300668        1.13226181421359
H            4.17980897025938        0.88608652453350       -0.62924187034430
H            3.00140155696318        1.89435476990360        0.26153051008965
H            3.76759150602004       -1.76259249333237       -0.24638774104298
H           -2.60891070682446        3.97573101891613       -0.34232678809115
H           -3.80811316657322        3.03851086928868       -1.38328302023771
H           -3.88269076142532        2.93480998334234        0.44852914572044
H           -0.69576592224008       -3.41045039482502        0.78922610157986
H           -1.06854264683581       -3.32549562871672       -0.94782239191478
H           -2.28074414894927       -2.81400485029567        0.26602852623286
H            1.60599015401727       -3.14488858344859       -0.22812725749373
