25
 energy: 54.544650957976 xtb: 6.6.1 (8d0f1dd)
C            3.46251252196954        0.93582913666217        0.14852069952500
N            2.53148435262010       -0.15935539269294        0.04755371943380
C            2.84074704685437       -1.44159190789604       -0.09972615118600
N            1.69906831343994       -2.17555700595921       -0.12352708907024
C            0.63513895212113       -1.31051868353003        0.01071882093235
C            1.17441428776081       -0.03376542653248        0.10810387170329
C            0.26422129886227        1.14519073189158        0.22215797980917
O            0.70161030001149        2.28491096203353        0.26844083371388
N           -1.02271028043677        0.80011282305051        0.25957829106916
C           -3.69150792403045        3.66402340244021       -0.40273364036800
C           -1.59485322558273       -0.36336501897500        0.18646483361579
O           -2.76100997711647       -0.65341595134439        0.23025137939211
N           -0.65782355519570       -1.57756608614315        0.03987016638777
C           -1.20520007910750       -2.90257845315573       -0.01039197004450
H            3.99012881580933        0.89427404687400        1.10165767302601
H            4.18953705807781        0.88511487933684       -0.66178506287824
H            2.89433377685851        1.86665504296589        0.09658762777659
H            3.82529585803410       -1.84583215739971       -0.19714259153324
H           -2.77220524978960        4.22662470343469       -0.33926213318361
H           -4.00792669975331        3.27138493598579       -1.35287837118384
H           -4.12612104560853        3.26447066391190        0.49966029779492
H           -0.82129345757060       -3.52192056230730        0.80539295414451
H           -0.99568771899232       -3.37842313614869       -0.97201977486325
H           -2.28563857510920       -2.79051380043480        0.10420188657259
H            1.64066314234810       -3.17624316320092       -0.23011865693672
