72
 energy: -99.357378119125 gnorm: 0.002552532570 xtb: 6.6.1 (8d0f1dd)
N           -1.83015613199129        3.24961718725259        2.15671868827940
C           -1.78281880023684        2.46045039868325        1.19076030071257
C           -2.92907007411458        2.17655001744817        0.26055759000688
C           -3.35946967191068        0.72525601505965        0.41287606903842
C           -4.26126400291910        0.17777565804583       -0.49661139123213
C           -4.68423946369764       -1.14350443642041       -0.37625554138359
O           -5.55845098893647       -1.74783244711938       -1.20802711250648
C           -6.17100647955763       -1.00259900695887       -2.23396056926145
C           -4.18049147153170       -1.93469312395106        0.66421192619700
O           -4.84875967020677       -5.82450330953415        0.85809103026366
C           -5.24621183102025       -6.88470050470224        1.24431928905046
C           -3.29719552319130       -1.38760958242226        1.56884462675573
C           -2.88577426073941       -0.06609041787071        1.45152564543740
C           -2.38150832230930        2.42400752631327       -1.17031460274670
C           -1.45773343801470        1.31440313871459       -1.70525667956389
C           -0.12926655860109        1.27359440727216       -1.05550739248431
N            0.48689987525017        0.17678863746232       -0.63850380327418
C            1.87007836357216        0.22544986794478       -0.22656760773606
C            2.81189334228913       -0.25796234333126       -1.34683562602844
C            4.24351319055137       -0.10298442930665       -0.91657287087646
C            4.91304522783584        1.09344224518490       -1.11805084580865
C            6.22505798553227        1.25210697466946       -0.70050484856893
C            6.89473965080183        0.21492276547904       -0.06684223982380
O            8.16416655370672        0.25540845415300        0.37666315855532
C            8.92290690896558        1.42741173668940        0.18504071257154
C            6.21462573385566       -1.01631532959227        0.14772924175681
O            6.93859352193985       -1.96995796748344        0.76523379591642
C            6.36342088795113       -3.23441173156728        0.99359528197638
C            4.90178256264523       -1.15025102565015       -0.27689124196326
C           -0.14993108419723       -1.11872843175207       -0.66418030893866
C           -4.17139034449054        3.07958610429233        0.51701677608502
C           -4.78822456187178        2.80495013431798        1.88635029769786
C           -3.87362882874130        4.56929911601054        0.37532446021824
H           -4.64376899088016        0.79185425955935       -1.29547132269039
H           -6.72476577091963       -0.14791304892345       -1.83397488028504
H           -6.86660062603559       -1.68519436033048       -2.71806935876076
H           -5.43952200844572       -0.65379286195761       -2.97051187235006
H           -4.50912302939170       -2.95868659258905        0.74028319417319
H           -6.09118407483516       -6.98153859638007        1.94277546851493
H           -4.79773962508212       -7.84174300617014        0.92756163542787
H           -2.92604495440085       -1.99230191415986        2.38198024726242
H           -2.21554641622280        0.34867765205208        2.18875594947047
H           -3.22307820961767        2.51783710044592       -1.85597289751140
H           -1.84243874557043        3.37227608446984       -1.18004351025641
H           -1.96409067597840        0.35317871843819       -1.64047484332563
H           -1.29105919845356        1.53463603601439       -2.76792048147656
H           -0.86617333179655        1.92054246021549        0.88029108579875
H            0.44751444088055        2.18700430150692       -1.04212361592346
H            2.00369604674722       -0.40197253349881        0.65839891146811
H            2.13451513797800        1.25127811883633        0.03847015819991
H            2.62641180873580        0.33980389836296       -2.24107563901126
H            2.59907356003080       -1.30204106678538       -1.57875664881463
H            4.41778497886524        1.91233603480055       -1.61742315006954
H            6.72184795167234        2.19155779702575       -0.87866136953085
H            8.48055039275942        2.28083789242208        0.70789992543840
H            9.03090731275564        1.66493849772554       -0.87745912001117
H            9.90232396419830        1.21347085092690        0.60839710577331
H            7.13884339641069       -3.82461084121619        1.47797490346379
H            5.49466332392911       -3.16660546625388        1.65620963117386
H            6.07310739967147       -3.71837763427565        0.05596064296110
H            4.37991671198726       -2.08220565075418       -0.12580167285156
H           -0.33675482038943       -1.44742300246156       -1.68845288962383
H           -1.10012590000854       -1.08932349475963       -0.12525369174496
H            0.49618830059902       -1.84612456655185       -0.18025161033879
H           -4.91182559883748        2.80930173134628       -0.24472713759663
H           -4.09261331241763        3.08418616874156        2.67136573061387
H           -5.04591702603932        1.75461458846001        2.00010765694415
H           -5.69470867128102        3.39349017168852        2.00131244630042
H           -3.13438985756778        4.87644417762242        1.10831708879474
H           -3.51788809867420        4.82026800310279       -0.62034504309940
H           -4.78526449573749        5.13318538975322        0.55477072721272
H           -0.98433798826287        3.39339792871672        2.69922688056020
