72
 energy: -99.340263330920 gnorm: 0.004796359805 xtb: 6.6.1 (8d0f1dd)
N           -2.65966227875414        2.75308037489278        2.26637251252306
C           -2.01363254328725        2.24526923077190        1.23147416974768
C           -2.95379615525383        1.94139196246081        0.11244763117189
C           -3.42174524794337        0.48700295766108        0.20388796589236
C           -4.40214242534714        0.03010353613360       -0.67844676254791
C           -4.90308460876616       -1.25757995388993       -0.59072584366073
O           -5.84281932739403       -1.78504865277685       -1.40304285864617
C           -6.43047954605721       -0.97296753300331       -2.39184341508738
C           -4.42322656503550       -2.12607579757834        0.42725052600078
O           -5.00026138631175       -3.34264612431153        0.47145568185185
C           -4.69158621048824       -4.20425222921593        1.54352303892009
C           -3.42574709221770       -1.67368369122283        1.27427562628570
C           -2.92797256503374       -0.38195092079954        1.16126685432591
C           -2.36489515196162        2.23797973222372       -1.27872571195999
C           -1.40228319175805        1.15186504517732       -1.78733023652704
C           -0.10513540154186        1.13673649947378       -1.07810992856047
N            0.51403220820670        0.05145491300911       -0.61908819092141
C            1.89115216996229        0.12967142015674       -0.19244187868489
C            2.85772742602728       -0.26711175318171       -1.32655832872411
C            4.28339167407489       -0.09806100168438       -0.88313546165779
C            4.94144445341193        1.10675984307839       -1.06392784216264
C            6.25341121503971        1.26892571894783       -0.64529246847277
C            6.93241730688876        0.22734030858194       -0.03085088577465
O            8.20563617236451        0.26956579340799        0.40768537372348
C            8.95555400911874        1.44784806794348        0.22346979561406
C            6.26251146797482       -1.01081673951625        0.16701937866323
O            6.99552382258028       -1.96974208248374        0.76985509072271
C            6.42911588287695       -3.24176722633954        0.97394032651005
C            4.95144083730784       -1.14925817919001       -0.25877352369316
C           -0.05906188784136       -1.26678891823398       -0.74607655090096
C           -4.16465632095985        2.85129732840724        0.50070918475982
C           -4.08165388794183        2.81984948901232        2.03650309912025
C           -4.05787460636266        4.28818576739685        0.00103642420888
H           -4.78387513568464        0.69766142026711       -1.43386316652447
H           -6.93224784969213       -0.10540798822484       -1.95216682649035
H           -7.16805081498395       -1.60188453595534       -2.88618348563791
H           -5.69237484533630       -0.63713282476356       -3.12758857366059
H           -4.89228655270490       -3.72781077322541        2.50759243491150
H           -5.34421854930080       -5.06678971515880        1.42242259479228
H           -3.64781770961749       -4.53327632106645        1.50798307181928
H           -3.04080717462211       -2.30984361815114        2.05375786212609
H           -2.16496393172237       -0.06056671877524        1.85313138222822
H           -3.18480545081428        2.31593785576580       -1.99194414427138
H           -1.84742625391866        3.19739483851170       -1.25493283748988
H           -1.89462615862567        0.18228916634996       -1.74392334517316
H           -1.20310894617423        1.37559857369563       -2.84389116054491
H           -0.95355236366592        2.07722001346580        1.23292043882406
H            0.42293997529845        2.07196594818714       -0.97513313508875
H            2.04081163066544       -0.53314441997215        0.66342416423993
H            2.11614153662463        1.15106190290280        0.12125504629879
H            2.65949689991214        0.37066564090862       -2.18993001733761
H            2.67537187723671       -1.30342153497773       -1.61337956734928
H            4.43916112706795        1.92977374479319       -1.54949544096857
H            6.74256443566877        2.21488271804022       -0.80999060230655
H            8.51006079707310        2.29439186564736        0.75498869200975
H            9.05844919241993        1.69523693911843       -0.83746658856102
H            9.93796492452940        1.23674621801070        0.64141988597436
H            7.20944562529943       -3.83690518902314        1.44426777131210
H            5.56156500831846       -3.19317063449588        1.64012961887772
H            6.13915471355461       -3.70894475389490        0.02754001941369
H            4.43745765276442       -2.08797660134695       -0.12292042810517
H           -0.12322933001702       -1.57573261451670       -1.79219527756007
H           -1.06056092897546       -1.28842311475808       -0.31121084427341
H            0.56392258833324       -1.97975725195502       -0.21195223884586
H           -5.10121417638704        2.41660112926451        0.15391347451297
H           -4.55077109642144        1.91649602060990        2.46598707426756
H           -4.26111292710879        0.23647233919977        3.68951356459711
H           -4.51110033809150        3.70258898628025        2.50826074310783
H           -3.14827372123531        4.76137482868770        0.36611038007738
H           -4.06571119455064        4.33765141798333       -1.08433711638276
H           -4.90959150377255        4.85859783517561        0.36443221087934
H           -2.26790767992375        2.87714154455966        3.18691641686100
