25
 energy: -42.135087291177 gnorm: 0.005694031121 xtb: 6.6.1 (8d0f1dd)
C            2.04897731112101        1.51996257369156       -0.40768801809837
N            1.58192730855863        0.15888029896564       -0.37939847600258
C            2.30611072069697       -0.86004100494692       -0.84571873897964
N            1.69162355443606       -2.01173792011922       -0.56934570506893
C            0.51451754246914       -1.77084842390859        0.13920794150422
C            0.44207922607125       -0.33634076216971        0.23607229363316
C           -0.56261880500532        0.40440305219521        0.95023793774533
O           -1.24388655627780       -0.09832419064332        1.83738109494028
N           -0.74319447812328        1.77248820352794        0.68279246688154
C           -1.09955953345236        2.32165388322128       -0.63323204219233
C           -1.70137198917127        1.34089283247407       -1.50887938317858
O           -1.89829947756132        0.20861045780846       -1.74192055697246
N           -0.17652492302643       -2.79239227183665        0.48859959081113
C           -1.37142851656994       -2.94107309495923        1.20271739223911
H            1.59288768590726        2.08473219667519        0.40277228518501
H            3.13095231927940        1.53089773505362       -0.28056296878305
H            1.81762339851284        1.98905663717719       -1.36643754383727
H            3.24672818379445       -0.75982209454975       -1.35011373689417
H           -1.34426032847651        2.14132478600081        1.41691198551331
H           -0.21776535968630        2.74020583411925       -1.14018679994666
H           -1.79008834749898        3.15868968072060       -0.48201908338944
H           -1.22370436081925       -3.74060515356363        1.93642739208269
H           -2.15735793068424       -3.27108242623128        0.51526221693071
H           -1.69290696860770       -2.02755838005574        1.71770400334621
H            2.00997183820268       -2.94373390704969       -0.78941192956333
