25
 energy: -42.199808618067 gnorm: 0.003794335574 xtb: 6.6.1 (8d0f1dd)
C            3.17919820791432        1.00477738159029       -0.04007614704805
N            2.17069115936015       -0.00399023862372       -0.02504762331621
C            2.44153495480563       -1.44042212201894       -0.00062289049963
N            1.19439863123668       -2.09112646568536       -0.00223690507580
C            0.27904785123176       -1.17192590219553        0.00006922894746
C            0.87771657102307        0.14812720613659       -0.01573677489726
C            0.04476950864594        1.36568838299914       -0.02473532068464
O            0.50001633549898        2.48387080512866       -0.05497645832753
N           -1.29367384306778        1.06657428073122        0.00842859094967
C           -2.23127836196591        2.18145410034736        0.01399374067055
C           -1.89829526434052       -0.20250135873607        0.01904491479524
O           -3.08849541602870       -0.31524668324170        0.03181482107853
N           -1.05458285277215       -1.31698247737191        0.01775324408087
C           -1.63324320964209       -2.64820999736442        0.03271112328361
H            3.80488983627126        0.92169284171542        0.85138342017354
H            3.82319687761000        0.87787347565123       -0.91243823029571
H            2.71351352580464        1.99049660013611       -0.06773822684604
H            3.00250097521082       -1.71136218738906        0.90586613910129
H           -1.67271698936817        3.10116588304885        0.16810127169590
H           -2.76305314055232        2.22460795591792       -0.93683295962271
H           -2.96193314651497        2.03689473682964        0.80839045793292
H           -1.28401866419200       -3.18817788858404        0.91175288620222
H           -1.32402330210594       -3.19258351899704       -0.85858295324321
H           -2.71622423104498       -2.55084937038315        0.05623352813677
H            3.05049550108236       -1.75160689804147       -0.85534725929175
