  25
        -42.21382736
 C          3.4573856045        0.8928386507       -0.0174887278
 N          2.4110374710       -0.0892473707       -0.0046685157
 C          2.5427087011       -1.4090694956       -0.0002433083
 N          1.3174560646       -1.9942123862        0.0031084737
 C          0.3781803990       -1.0060723339       -0.0012286607
 C          1.0659389604        0.2011847616       -0.0051856331
 C          0.3568935251        1.4669277291        0.0198849951
 O          0.8234487642        2.5654247963        0.0482654902
 N         -2.9409100171        0.0302145819       -0.0251196432
 C         -3.8468596893        1.1297502459       -0.0295959896
 C         -1.6920202592        0.1015696932       -0.0068510579
 O         -1.0045899805        1.2814583105        0.0135048373
 N         -0.9600652183       -1.1008397047       -0.0093588484
 C         -1.6483433977       -2.3744429672        0.0109454498
 H          3.3545043349        1.5554573999        0.8428899899
 H          4.4268939178        0.4013905403        0.0065681991
 H          3.3771158451        1.5088605742       -0.9143829056
 H          3.4703273147       -1.9450528618        0.0003379682
 H         -3.3768844061        2.0869337621        0.2036110759
 H         -4.3107552805        1.1821057726       -1.0158194734
 H         -4.6302007667        0.9069963109        0.6953232199
 H         -1.5336332421       -2.8563429476        0.9829327079
 H         -1.2641679273       -3.0221028534       -0.7766891447
 H         -2.7033819600       -2.1776482661       -0.1645501112
 H          1.1472594315       -2.9891638455        0.0147386653
