25
 energy: 0.000000000000 xtb: 6.6.1 (8d0f1dd)
C            3.23720163006194        1.16630919979326        0.08434469647475
N            2.29877817382611        0.07527477071623        0.03981603040599
C            2.58028210190900       -1.21425402444508        0.03006176031096
N            1.43813958087363       -1.93419271955128        0.00098261760884
C            0.39035688448383       -1.05887472636071       -0.00790371836672
C            0.93510056364412        0.21347819449412        0.01709077491437
C            0.09450143893243        1.40504303904423       -0.00410947031874
O            0.49712751527797        2.54126714362870       -0.00342325688240
N           -1.25076640035757        1.06271879480407       -0.03085478223738
C           -2.21907211982101        2.15522099834493       -0.05001256985998
C           -1.81739487048744       -0.20012725993278       -0.04692818574614
O           -2.99983886758376       -0.37846417018721       -0.07008878229737
N           -0.92618586207120       -1.30210215599479       -0.03682761578324
C           -1.46982264913417       -2.64643102187190       -0.06029820460571
H            3.71247264356769        1.21471455160235        1.06488849150277
H            4.00791497605742        1.03430808813993       -0.67357694370751
H            2.69910007168542        2.09770118228144       -0.09130154882931
H            3.56654120610678       -1.63682992603973        0.04233140067262
H           -1.67107961066214        3.09322851271934       -0.02552706933167
H           -2.82428953597071        2.09428624779827       -0.95318082946668
H           -2.87644029173232        2.07745725625962        0.81450067533302
H           -1.17061996399332       -3.19584890659852        0.83242232437030
H           -1.14560257411436       -3.17511610292205       -0.95688275822323
H           -2.55549792440841       -2.55659984320617       -0.07459039797972
H            1.38130855184625       -2.94313852034425       -0.01389874181052
25
 energy: -2.189943672079 xtb: 6.6.1 (8d0f1dd)
C            3.23082746777072        1.17513232908639        0.07455905004193
N            2.30092964638155        0.08883344560125        0.03223732259363
C            2.59827646517031       -1.23680528938420        0.03104085515431
N            1.43023650316319       -1.95013612348733        0.00592562500221
C            0.39474257410103       -1.06982251068693       -0.00699137096009
C            0.92381902483705        0.21044221637453        0.01195462319867
C            0.09795780001477        1.38488514677394       -0.00615467510797
O            0.49561872396392        2.54933050806890       -0.01057047487735
N           -1.26352784566370        1.05238217524304       -0.03070186129208
C           -2.18811294459650        2.19352845207518       -0.03316069225615
C           -1.82565320946125       -0.20988312843568       -0.05219012730150
O           -3.02114568160635       -0.40136688815259       -0.07029686026283
N           -0.93516191029319       -1.31597431682310       -0.03582528309690
C           -1.45978005194361       -2.66684956870554       -0.05338665098455
H            3.70521466272056        1.23035378495572        1.05762381710840
H            4.00115668595899        1.03745869920265       -0.68530465404154
H            2.68023977511998        2.09584982520014       -0.10984447809356
H            3.57870980115295       -1.65631142519916        0.04490783939491
H           -1.69965050003505        3.20145158858856        0.04567181491960
H           -2.73924771634988        2.20590481969481       -0.94312147261054
H           -2.94201674095410        2.03508520211327        0.73952061348909
H           -1.15550866121127       -3.21334052390287        0.84216942314297
H           -1.12034548877008       -3.20252259287175       -0.94297847444907
H           -2.54597235590433       -2.59413736110364       -0.07435519245992
H            1.37060864437051       -2.95445986205359       -0.00369482010437
25
 energy: 6.395496804111 xtb: 6.6.1 (8d0f1dd)
C            3.21689735146768        1.18066725658007        0.05556402486146
N            2.29750559797092        0.09682178139171        0.01761408146252
C            2.61273823020282       -1.26218266221797        0.03284815988097
N            1.41887314507104       -1.96633412716684        0.01413662096975
C            0.39764368517652       -1.08612594913386       -0.00411908162695
C            0.90722310619208        0.20199166258404        0.00309119918041
C            0.10132691950840        1.35342343801511       -0.01214312515366
O            0.48438064584656        2.53893483254051       -0.02830385958588
N           -1.28413751193153        1.04619524869267       -0.02435602551411
C           -2.15272055076875        2.24809776773201       -0.00511693639619
C           -1.83516763943802       -0.21867349736149       -0.04928387834610
O           -3.03669918238497       -0.43428867077366       -0.06631037705405
N           -0.94697234178277       -1.33099452186813       -0.03137270279493
C           -1.44165887315428       -2.69470098917227       -0.04171119273835
H            3.69034939864706        1.25429029554160        1.04041963191894
H            3.99015268537136        1.04174299684951       -0.70331641464105
H            2.65241349866797        2.09028106977334       -0.14162300297478
H            3.58813435929769       -1.67423752311042        0.04847901025722
H           -1.73258798377098        3.33578045969516        0.19412803853656
H           -2.58634114519686        2.40819127070866       -0.96622227764042
H           -3.05417543916598        1.96089221847355        0.61588542331645
H           -1.13092866194223       -3.23544525673787        0.85892061019430
H           -1.07804460520394       -3.24111560405207       -0.91958300734760
H           -2.52917531644445       -2.65599181696856       -0.07388488222839
H            1.36318529570093       -2.96819107784282        0.01329385961113
25
 energy: 19.177896165508 xtb: 6.6.1 (8d0f1dd)
C            3.19903901152367        1.18267439855866        0.03621277027220
N            2.28966369663344        0.09457294197329        0.00336262145422
C            2.61692081723983       -1.28112970260381        0.03339565110735
N            1.41199577356327       -1.98037044660624        0.02076857151114
C            0.39674019463506       -1.10451656021150       -0.00077949790485
C            0.89259954872655        0.18925603059102       -0.00514610669950
C            0.09587262854990        1.32978488557152       -0.01976750748616
O            0.46486764819150        2.52413597714056       -0.04860251222371
N           -1.30884139720722        1.04523313773522       -0.00704569736281
C           -2.13512547844029        2.29316316159021        0.02406710042251
C           -1.84685118502286       -0.22785820254969       -0.03455976899605
O           -3.04690222507386       -0.46962449433571       -0.05583488875087
N           -0.95593389555254       -1.34471819518102       -0.02508054217091
C           -1.42184493322950       -2.72166283744538       -0.03213347398313
H            3.66988223342665        1.27649232834393        1.02209870265232
H            3.97709960224960        1.04632583420237       -0.71906009483011
H            2.62447161875497        2.08447028017597       -0.17307072372157
H            3.59293047250523       -1.68497756032323        0.04991160806589
H           -1.76206914176734        3.43323441518863        0.34341012437880
H           -2.41226602920037        2.61615296151200       -0.98820885162968
H           -3.14708860361062        1.91873685753288        0.47697332137511
H           -1.10596377716628       -3.25465971352948        0.87389657009194
H           -1.03278814279137       -3.27283250805495       -0.89935898638249
H           -2.51007550087172       -2.71998662255236       -0.07695088027790
H            1.36588173187057       -2.98286776455092        0.02853638723555
25
 energy: 28.520624195402 xtb: 6.6.1 (8d0f1dd)
C            3.18088520300700        1.18082659525968        0.02427711262042
N            2.27987879593737        0.08403479230386       -0.00620214023636
C            2.61193120156477       -1.29174373478392        0.03316816677813
N            1.40937597659658       -1.99025054480212        0.02396287670495
C            0.39246027284464       -1.12092581078273        0.00134468169014
C            0.88233083347682        0.17525842832001       -0.01150733886382
C            0.08558614519033        1.31655816890575       -0.02929662933025
O            0.44326224265899        2.50745369966634       -0.06862904022386
N           -1.33102734362102        1.05043802691113        0.01712508017960
C           -2.13189745773144        2.32639884737709        0.04300717982949
C           -1.85821403058427       -0.23440309982486       -0.01157806616154
O           -3.05043723763877       -0.49953098860869       -0.04138173583534
N           -0.96154766052086       -1.35458368656613       -0.01997181602215
C           -1.40454611121709       -2.74312784713337       -0.03024757934952
H            3.64650765066058        1.29146331466379        1.01108658926524
H            3.96505667921252        1.04997057670897       -0.72530755316453
H            2.60035141654322        2.07800960639758       -0.19432525297167
H            3.59241640765253       -1.68838227508038        0.05009820842291
H           -1.80268215878560        3.50494016659253        0.42845136903388
H           -2.26624291521400        2.74671234621685       -0.95524603253610
H           -3.17549816326499        1.93238350136920        0.34868126449237
H           -1.08717566247457       -3.27021494211266        0.87981505273413
H           -0.99211705743974       -3.29179588294254       -0.88967417060223
H           -2.49188491151364       -2.77508920009470       -0.08839860166880
H            1.37544255259696       -2.99537145578868        0.03778227136217
25
 energy: 32.397496262546 xtb: 6.6.1 (8d0f1dd)
C            3.16874315617439        1.17653398849867        0.01537253559709
N            2.27196789112510        0.07024667323956       -0.01308308355107
C            2.59969589898806       -1.28829851169269        0.02849021758785
N            1.41267859468445       -1.99247273706283        0.02419452430043
C            0.38564089788225       -1.13019565124580        0.00273787269202
C            0.87911853965136        0.16528643238099       -0.01270450173177
C            0.07266730120171        1.31654266852679       -0.02760030226366
O            0.42344876420177        2.49637435650738       -0.08149731105903
N           -1.34377430008718        1.05550601188469        0.04936727347422
C           -2.14960827774805        2.33216892899430        0.05155385727600
C           -1.86807710133450       -0.23922706363849        0.00742759031444
O           -3.04962774213484       -0.51776807937459       -0.02557868464278
N           -0.96226274593456       -1.35914838660343       -0.01550621212048
C           -1.39753822302509       -2.75242396136955       -0.02855512124650
H            3.62931662504094        1.29397608262624        1.00200760871867
H            3.95625405182534        1.04890304630989       -0.72992081086150
H            2.58808409269080        2.07267291201427       -0.20737112688057
H            3.58652701119150       -1.68073236961194        0.04267417612174
H           -1.85588511340702        3.53510925596008        0.49427256486400
H           -2.11332939102919        2.79998098883662       -0.90598716438993
H           -3.17627928856994        1.95393797343739        0.21263564656673
H           -1.08227798556380       -3.27481802919224        0.88422223467209
H           -0.97293065107915       -3.29218079733954       -0.88499300854622
H           -2.48072758926217       -2.80056703547590       -0.09533904564896
H            1.39039025245415       -3.00037809443790        0.04021416690443
25
 energy: 37.128630887743 xtb: 6.6.1 (8d0f1dd)
C            3.16454548390699        1.17473212066566        0.00193658841431
N            2.26793705267604        0.06518793103631       -0.02304669967871
C            2.59031178027050       -1.27589799078878        0.01652544716048
N            1.41748620694393       -1.98957115768695        0.02091092223820
C            0.37993107958897       -1.13162514793355        0.00754652099120
C            0.87812784652733        0.16327170067863       -0.00707913154372
C            0.06216370097746        1.31842621024537       -0.00475368071892
O            0.40991952904474        2.49489390216122       -0.08643596988685
N           -1.34622622280445        1.04866128158880        0.10239425175200
C           -2.16691410307017        2.31712598810413        0.06078259007149
C           -1.87618926548459       -0.24654321196946        0.03300586015956
O           -3.05283521369081       -0.52742594244864       -0.00258259783811
N           -0.96133348883453       -1.36227623882886       -0.00454824820344
C           -1.40073592776273       -2.75356234312058       -0.02129598167583
H            3.62441771752316        1.28856189352403        0.98751188339613
H            3.95009500256657        1.04395434940379       -0.74384837395157
H            2.58586249268590        2.07086673516810       -0.22023229254368
H            3.58015780642833       -1.66689653159736        0.02277223724596
H           -1.91177731726020        3.53921897708935        0.58599272310571
H           -1.89895609449256        2.84451141634433       -0.89098935761239
H           -3.24367342955569        1.92958382552045        0.03524947605840
H           -1.08595327425690       -3.27451770828441        0.89120469786436
H           -0.97550884080046       -3.28389459050053       -0.87982388726268
H           -2.48068978027008       -2.80000666183425       -0.08849794733308
H            1.40205192707958       -2.99775020436481        0.03433486593846
25
 energy: 35.686488364586 xtb: 6.6.1 (8d0f1dd)
C            3.16576128618782        1.17469654414640        0.00378589640271
N            2.26610394552969        0.06566089382521       -0.02330144538451
C            2.58335475382158       -1.26148175490946        0.01349227238230
N            1.41959009892040       -1.98322294546748        0.01878787899418
C            0.37544191379395       -1.12505674771985        0.01011777689161
C            0.87886210500503        0.16776056416614       -0.00257128232343
C            0.05738514768181        1.32264571035877        0.00398542416920
O            0.41125685261231        2.49627467886780       -0.09073411986142
N           -1.33899530478754        1.04120687368384        0.12342088208781
C           -2.17233231917590        2.30027864448807        0.04726555204265
C           -1.87871004002245       -0.24858623906624        0.04388204563111
O           -3.05517216170701       -0.51957720405278        0.00393551005350
N           -0.96018417013234       -1.36092823645698       -0.00043823161231
C           -1.40716376626246       -2.74936922418173       -0.02389435704322
H            3.62497124151796        1.28155339304307        0.99000889961596
H            3.95055665523017        1.04103511912638       -0.74188116979202
H            2.58967176657256        2.07230510171096       -0.21610258927926
H            3.57301361707401       -1.65650963462511        0.01636652045763
H           -1.94380662613909        3.51959722474444        0.56538934094574
H           -1.85915214179766        2.80212224536712       -0.82918793502612
H           -3.20419700161849        1.93581299682115       -0.02188225434898
H           -1.09313702490477       -3.27345899867877        0.88589189178968
H           -0.98473964889898       -3.27574907466128       -0.88559704498872
H           -2.48825106713220       -2.78721316699980       -0.09014665731657
H            1.40208655656792       -2.99076816135790        0.02644109165971
25
 energy: 36.627527312274 xtb: 6.6.1 (8d0f1dd)
C            3.16534627399807        1.17829945456052        0.00178940436355
N            2.26420192297113        0.07167199940885       -0.02620038980570
C            2.58502908867927       -1.25885446060289        0.01035102423324
N            1.41895818750595       -1.98280830512991        0.01754661895561
C            0.37533034178770       -1.12367390407058        0.01289007975780
C            0.87488245143772        0.17050353208599        0.00000335154217
C            0.05075045427294        1.31902832849443        0.01008297952349
O            0.40560228135777        2.49615960083990       -0.08993721438199
N           -1.34316888309472        1.03284179173833        0.14283875992260
C           -2.17321277412447        2.29550651190972        0.04337650457093
C           -1.88126861625373       -0.25367175792379        0.05269481999146
O           -3.06025771802853       -0.52342817384556        0.01047021498458
N           -0.96138164384959       -1.36405060822821        0.00476594251339
C           -1.40872371146644       -2.75186693106893       -0.02209705294861
H            3.62728498522021        1.28245495134197        0.98786707644255
H            3.94914816157927        1.04287460397780       -0.74512987103208
H            2.58975163538275        2.07650659666427       -0.21648335339154
H            3.57332900729727       -1.65555140137977        0.00956732392755
H           -1.97450618921093        3.51858672982963        0.57539067564290
H           -1.78925073881842        2.81964482459663       -0.81154043756282
H           -3.19833711099358        1.93057796671892       -0.07563092159434
H           -1.09411644096202       -3.28007489627974        0.88536526718339
H           -0.99056110021037       -3.27870063819572       -0.88656716531112
H           -2.49150881973349       -2.78342669839288       -0.08577539689770
H            1.39889362319256       -2.98952051487703        0.02139565551792
25
 energy: 37.656046808599 xtb: 6.6.1 (8d0f1dd)
C            3.16750900188232        1.18169778520998        0.00028377033005
N            2.26389768763630        0.07958401402995       -0.02838917121798
C            2.59074944996972       -1.26124859379669        0.00792937040664
N            1.41705742234652       -1.98387546348245        0.01635122701558
C            0.37826560167102       -1.12137757194791        0.01429357626183
C            0.87190487137306        0.17403448036652        0.00205249896715
C            0.04746306983045        1.31585164601244        0.01577330522361
O            0.40694713141926        2.49662889062314       -0.07781750709394
N           -1.34599463114407        1.02862860363003        0.15687351011096
C           -2.16947887848344        2.29671753313125        0.03536798795288
C           -1.87869714619141       -0.25460095465161        0.05369560719106
O           -3.06218295649027       -0.52100537512045        0.01095730098264
N           -0.96192256544874       -1.36524859664876        0.00838844240014
C           -1.40999878523262       -2.75184388278039       -0.01934263477621
H            3.63415758094350        1.28345933371503        0.98571501265331
H            3.94930171276706        1.04518944359154       -0.74934678904511
H            2.59240317217794        2.08113865603234       -0.21530637660572
H            3.57612180575592       -1.66088737276165        0.00367195079613
H           -2.01304871470749        3.52028106592328        0.57813501314310
H           -1.74259077697772        2.81842842372221       -0.78601341420379
H           -3.20075206788871        1.91929494669591       -0.12332609956161
H           -1.09383775793659       -3.28517072007371        0.88527604710318
H           -1.00029538055745       -3.28229105914270       -0.88737865164492
H           -2.49540344057923       -2.77471420549425       -0.07750686390829
H            1.39063926180099       -2.98964242461111        0.01669678366652
25
 energy: 36.273782070754 xtb: 6.6.1 (8d0f1dd)
C            3.16862346958117        1.18289999998985        0.00048344875091
N            2.26345008890077        0.08282392914837       -0.02780463936725
C            2.59321314432520       -1.26234133595795        0.00785959170447
N            1.41659874560282       -1.98380028092384        0.01573905085663
C            0.37971534382502       -1.12069404589803        0.01332647352308
C            0.87081974480116        0.17494547094553        0.00217899543976
C            0.04443494233471        1.31535455916823        0.01758684994677
O            0.40640624375535        2.49722002356973       -0.06657057100922
N           -1.34959480291851        1.02709734597333        0.15494910845971
C           -2.17383268482449        2.29445806293455        0.03003405762674
C           -1.87734567111599       -0.25614441183093        0.04848045958610
O           -3.06241481608001       -0.52080563566341        0.00500277820293
N           -0.96178260824875       -1.36595915761952        0.00787145244848
C           -1.41051916384363       -2.75132200150139       -0.01788526312341
H            3.63758161775106        1.28360363132798        0.98516611223964
H            3.94907956588798        1.04636983795765       -0.75083986847320
H            2.59443068223526        2.08334393182465       -0.21347629650067
H            3.57768825822343       -1.66228165458727        0.00321503397658
H           -2.02381767699902        3.50660408279524        0.57080124104421
H           -1.73674693287049        2.82146990180236       -0.78656273900466
H           -3.18707329454461        1.92434145079278       -0.11500178999973
H           -1.09242426771447       -3.28471917541130        0.88607182905611
H           -1.00535457648050       -3.28332176388128       -0.88746003437559
H           -2.49662076043489       -2.77072956162123       -0.07216899964006
H            1.38770007678779       -2.98938460116213        0.01603761477892
25
 energy: 35.485164101102 xtb: 6.6.1 (8d0f1dd)
C            3.16876300841869        1.18164345185028       -0.00025948435102
N            2.26325573436907        0.08132965071581       -0.02743661113370
C            2.59232477625937       -1.26233028739635        0.00719146342928
N            1.41690342842126       -1.98336147138016        0.01477629785586
C            0.37948850888136       -1.12099268591588        0.01310353667329
C            0.87175939300947        0.17396692547373        0.00260710182518
C            0.04499462813364        1.31674000700645        0.02019646361306
O            0.40761826777077        2.49734944919627       -0.06251674455696
N           -1.34935549169313        1.02920330618174        0.15497670943732
C           -2.17484532615185        2.29555583275390        0.02883353361141
C           -1.87659567600115       -0.25542632552808        0.04946750915791
O           -3.06090047767772       -0.51958024425626        0.00380345282838
N           -0.96146925106910       -1.36512463254222        0.00821884502781
C           -1.41056382946747       -2.75019659247089       -0.01756666305039
H            3.63789350664637        1.28244364795200        0.98389813340177
H            3.94859522943029        1.04554047831144       -0.75213739703123
H            2.59503969890594        2.08249706463959       -0.21366285894965
H            3.57739280205381       -1.66122200301591        0.00254059452152
H           -2.02375082378984        3.50012896015439        0.57192007432093
H           -1.73498232036891        2.81869812096473       -0.78772302888184
H           -3.19522152410644        1.92653240617445       -0.11709291793990
H           -1.09139709126942       -3.28257611744007        0.88628801030688
H           -1.00532189674741       -3.28111129112873       -0.88735218564031
H           -2.49623471133514       -2.77141668919350       -0.07106240880657
H            1.38882410531387       -2.98926235893481        0.01602247047820
25
 energy: 33.444056592607 xtb: 6.6.1 (8d0f1dd)
C            3.16829088221712        1.18048455719997       -0.00119955351795
N            2.26201158837551        0.08029729000102       -0.02624211506779
C            2.59100379143698       -1.26228811006240        0.00660071676384
N            1.41668899090045       -1.98252130543799        0.01337084646128
C            0.37867554513592       -1.12131161163812        0.01282083188167
C            0.87212413639002        0.17279741483146        0.00269535611669
C            0.04514016099767        1.31827364616508        0.02235417823882
O            0.40930683593994        2.49758567311285       -0.05761609205493
N           -1.35028759274929        1.03208618668353        0.15152527540964
C           -2.17436903559573        2.29962680919751        0.02449600821358
C           -1.87612207966404       -0.25486761752549        0.04944189507631
O           -3.05993801555508       -0.51782774810681        0.00161111459355
N           -0.96193972636928       -1.36384746394196        0.00896121802775
C           -1.41047158509487       -2.74896826469995       -0.01674618995284
H            3.63791502592272        1.28165800478117        0.98220734935066
H            3.94713798009048        1.04448549157023       -0.75398034833063
H            2.59519698243917        2.08201094353821       -0.21396720222778
H            3.57711540843713       -1.65877343383286        0.00236415227044
H           -2.02322846316535        3.48038818922099        0.57618750732928
H           -1.73072821728039        2.82043717900905       -0.78914972038315
H           -3.20157961661181        1.93022412632774       -0.11609754616821
H           -1.08944527772635       -3.28002344374993        0.88686427059339
H           -1.00468073413368       -3.27850579282870       -0.88690818073106
H           -2.49567012441489       -2.77351630579486       -0.06950847857630
H            1.39006780801398       -2.98887581184783        0.01694860283094
25
 energy: 31.161712298740 xtb: 6.6.1 (8d0f1dd)
C            3.16785633354034        1.18025831672055       -0.00179667902857
N            2.26112007563945        0.08026038066909       -0.02523833388160
C            2.59004506132440       -1.26210186615448        0.00616953228359
N            1.41607004792290       -1.98192936650047        0.01254318848092
C            0.37782449474889       -1.12106873203617        0.01285317079345
C            0.87196668654181        0.17272790161134        0.00249185024610
C            0.04531177580839        1.31898540349023        0.02242643018064
O            0.41052711566313        2.49782206885973       -0.05691862957099
N           -1.35093700481629        1.03397510629783        0.14844798427909
C           -2.17317418543131        2.30322640296672        0.02048135368911
C           -1.87633755102070       -0.25426132904290        0.04925751435804
O           -3.06026477864240       -0.51634534792311        0.00209136168131
N           -0.96281253739502       -1.36253062265563        0.00966540393452
C           -1.41045354665178       -2.74814382645339       -0.01629531892456
H            3.63775224434186        1.28194275311893        0.98132881263076
H            3.94622577432625        1.04382973853451       -0.75491048995600
H            2.59481817374869        2.08196102380409       -0.21460179116429
H            3.57684094181573       -1.65704607125291        0.00250645069899
H           -2.02723345933916        3.45785201461968        0.58290157390006
H           -1.72274927385452        2.82484193365179       -0.79001734158954
H           -3.20281905419636        1.93388899161568       -0.11570845375115
H           -1.08885839224348       -3.27891664493092        0.88719847519161
H           -1.00364825466653       -3.27705333813191       -0.88643659198791
H           -2.49534949682623       -2.77469538006368       -0.06955410912765
H            1.39049347759830       -2.98845090864270        0.01814853278127
25
 energy: 29.704455565471 xtb: 6.6.1 (8d0f1dd)
C            3.16761453621428        1.18078950637343       -0.00170246992525
N            2.26129150814166        0.08051544810685       -0.02483140097205
C            2.58971425897223       -1.26202360221710        0.00619481980274
N            1.41549514762766       -1.98192236333012        0.01276985616228
C            0.37738171797086       -1.12064443676143        0.01310043680109
C            0.87173738023665        0.17338909834470        0.00217419637092
C            0.04588521305535        1.31872162718865        0.02045223552579
O            0.41057714629705        2.49791313023750       -0.06088399207671
N           -1.35053437126403        1.03436348018983        0.14661747411279
C           -2.17095996598842        2.30525253143573        0.01921836061695
C           -1.87706377168811       -0.25353020879172        0.04932747087584
O           -3.06123500307403       -0.51579276436811        0.00468000274745
N           -0.96348430422158       -1.36171714643923        0.00967451398209
C           -1.41043632233459       -2.74793313745327       -0.01666044195283
H            3.63716102918850        1.28310961753968        0.98170525258851
H            3.94637449075112        1.04401013220891       -0.75430962563470
H            2.59400549614046        2.08198551810913       -0.21522076113143
H            3.57655807022759       -1.65704068402084        0.00326040985032
H           -2.03073061358808        3.44342958524146        0.58781939302744
H           -1.72059736601945        2.82949253257748       -0.79019916374660
H           -3.19976444692919        1.93573364542832       -0.11483700949644
H           -1.08977174415884       -3.27902032204066        0.88716612174245
H           -1.00213797933669       -3.27689489840862       -0.88618580849174
H           -2.49521961024432       -2.77483608570273       -0.07145573413721
H            1.39035417196027       -2.98832160127588        0.01915975950553
25
 energy: 28.902958091186 xtb: 6.6.1 (8d0f1dd)
C            3.16774746852077        1.18143674228704       -0.00145247840632
N            2.26225694959518        0.08060522670003       -0.02512984711955
C            2.58974218877815       -1.26200648990234        0.00619816568177
N            1.41514153608418       -1.98212922543911        0.01350690590340
C            0.37738069191795       -1.12007559551108        0.01333464818080
C            0.87178904128654        0.17434144398083        0.00196804067114
C            0.04664951856751        1.31843246724474        0.01840252615658
O            0.41002056302127        2.49814107692676       -0.06555698073787
N           -1.34940834132505        1.03418528689545        0.14687960738050
C           -2.16947161724286        2.30534158608360        0.02018378850956
C           -1.87768130149259       -0.25241485949267        0.04951535302503
O           -3.06188198788499       -0.51552256168686        0.00753862426754
N           -0.96363596894408       -1.36116160426337        0.00913479823617
C           -1.41057535029445       -2.74768975381090       -0.01719117482297
H            3.63669145445947        1.28425353821172        0.98242251251402
H            3.94724736450910        1.04458211180021       -0.75327338867717
H            2.59341461311804        2.08188794714280       -0.21581397054015
H            3.57615554559055       -1.65835984146089        0.00394884019300
H           -2.03536326951840        3.43601145865652        0.59193151310700
H           -1.72025532396101        2.83208384969102       -0.79022157112968
H           -3.19561825481601        1.93545665603922       -0.11673192417730
H           -1.09138242468290       -3.27915594902528        0.88718263751868
H           -1.00119193203617       -3.27713263596980       -0.88587838552100
H           -2.49538278740438       -2.77377673729286       -0.07340645412360
H            1.38982629209055       -2.98830553563278        0.01954211005765
25
 energy: 28.568706668212 xtb: 6.6.1 (8d0f1dd)
C            3.16794006425706        1.18179593114759       -0.00122848228140
N            2.26315226215331        0.08046859578210       -0.02567334877640
C            2.58996383681380       -1.26214209391468        0.00602704433426
N            1.41506048221825       -1.98226786320158        0.01405961942266
C            0.37762415700641       -1.11975445681290        0.01351939622780
C            0.87201564363522        0.17483181154074        0.00210620203733
C            0.04723822848776        1.31842048695830        0.01786009416859
O            0.40957152609314        2.49839446122336       -0.06745845227420
N           -1.34855595058720        1.03408643152611        0.14829589522333
C           -2.16865629085975        2.30509521301540        0.02204844694955
C           -1.87789825527650       -0.25136234351796        0.05003912106520
O           -3.06189893855644       -0.51532803956396        0.00868247961810
N           -0.96343810672195       -1.36093843528215        0.00861494468452
C           -1.41065579631625       -2.74743382568975       -0.01757280681439
H            3.63649268685543        1.28478119568940        0.98290334995469
H            3.94796516555088        1.04529149062435       -0.75260030680147
H            2.59317089403320        2.08178856710077       -0.21592415359682
H            3.57590287081743       -1.65981316624804        0.00428165351285
H           -2.03659972627951        3.43318718703187        0.59219305310024
H           -1.72341804087131        2.83230108013787       -0.79066242489171
H           -3.19336755029172        1.93503355769282       -0.11874754023517
H           -1.09221679048735       -3.27902854247516        0.88710890385226
H           -1.00096376593204       -3.27720542807877       -0.88581209401888
H           -2.49556300028517       -2.77283683747527       -0.07420346609712
H            1.38934906247964       -2.98833637503852        0.01917676778342
25
 energy: 28.338963051226 xtb: 6.6.1 (8d0f1dd)
C            3.16816878479992        1.18177948284451       -0.00128205168390
N            2.26364393500770        0.08027245853490       -0.02635791459736
C            2.59011142570717       -1.26224045820419        0.00563000487458
N            1.41507422599820       -1.98218349533784        0.01438806945670
C            0.37785106102980       -1.11949401083113        0.01365959590347
C            0.87230383150088        0.17503318552025        0.00232294488216
C            0.04765961291480        1.31890181042807        0.01842715513854
O            0.40967664328295        2.49880989719583       -0.06682813756622
N           -1.34802070143892        1.03444848945403        0.14994744152477
C           -2.16875617974095        2.30482574901712        0.02382647222690
C           -1.87770290183144       -0.25026101026344        0.05008599351464
O           -3.06143191875281       -0.51473640309222        0.00810782471900
N           -0.96312184095039       -1.36071063937845        0.00833894481406
C           -1.41080355408195       -2.74693608558229       -0.01740453858782
H            3.63660771508242        1.28462319537704        0.98289024707591
H            3.94834740619354        1.04563008360404       -0.75260285465757
H            2.59337371071143        2.08170134662776       -0.21591831054247
H            3.57569378672441       -1.66082658769376        0.00428812950145
H           -2.03796367780011        3.43185201017219        0.59297090063663
H           -1.72535193396332        2.83063256742378       -0.79164375462180
H           -3.19231540804174        1.93350539860710       -0.12233793212204
H           -1.09237248653355       -3.27845519908938        0.88732372451095
H           -1.00153553295169       -3.27693985760533       -0.88561114554171
H           -2.49580528696280       -2.77193771941601       -0.07368677462394
H            1.38888395203278       -2.98826560614065        0.01849986191228
25
 energy: 28.148359412357 xtb: 6.6.1 (8d0f1dd)
C            3.16816653172692        1.18153203598085       -0.00145600767266
N            2.26335987792292        0.08025058144028       -0.02685387708800
C            2.59018979595396       -1.26226341160535        0.00505352550526
N            1.41516709973829       -1.98194569648804        0.01429997048676
C            0.37789346072702       -1.11954486865941        0.01389462671874
C            0.87237975823630        0.17475580360523        0.00265541344766
C            0.04770302746328        1.31929682435498        0.01997795109687
O            0.41020734784269        2.49896496742277       -0.06418766796625
N           -1.34821556216686        1.03483950384616        0.15120093938317
C           -2.16891785184328        2.30543696548644        0.02497482898395
C           -1.87737102193374       -0.24982111382048        0.05035613184156
O           -3.06098006392316       -0.51420171431365        0.00641253962059
N           -0.96298837935373       -1.36073790496402        0.00875893458520
C           -1.41080234036657       -2.74668396166007       -0.01700747846035
H            3.63679242772819        1.28399647759492        0.98256369469941
H            3.94811030417514        1.04566539846850       -0.75309973742749
H            2.59368856411290        2.08181847887589       -0.21560409122318
H            3.57576633819237       -1.66070018436692        0.00407640062107
H           -2.03688358145474        3.43040795933331        0.59181439010460
H           -1.72751801149072        2.82924941544466       -0.79265120736809
H           -3.19260311125932        1.93347389883764       -0.12504191542449
H           -1.09157969546851       -3.27813798767433        0.88736431938072
H           -1.00224391166576       -3.27649360201601       -0.88574043323095
H           -2.49584930402372       -2.77198821982119       -0.07246689304060
H            1.38874296906649       -2.98814104313018        0.01773953857368
