25
 energy: -41.988329012822 gnorm: 0.001876544776 xtb: 6.6.1 (8d0f1dd)
C            4.05214606631085        1.46540143461037        0.07722053374429
N            3.36489331676506        0.20910642671902       -0.00333368356125
C            3.89390729380608       -1.00583101712871       -0.03962682334190
N            2.89887103580857       -1.90666721101369       -0.11254934733040
C            1.66226077132055       -1.34757854031655       -0.12856614786995
C            1.96760203922721        0.05389824024397       -0.05577839359725
C            1.08834619465959        1.06441487927411       -0.03955709796502
O            0.24849669755521        1.86342940622487       -0.03361250957093
N           -2.73196748039544        1.63050375322717       -0.02695449039934
C           -3.30275294822742        2.91147112130741        0.07911104929240
C           -2.63221346752616        0.48218345016206        0.20514299035918
O           -2.38471311970849       -0.65485287260981        0.31420992117644
N           -2.63818881151685       -3.52287240613934       -0.14842526855156
C           -3.70574112079892       -4.20330573291510       -0.22022027833516
H            3.78198697417806        1.98633315775964        0.99827660545133
H            5.12700545322200        1.29633523058315        0.06745131167764
H            3.78200393758618        2.09749303037820       -0.77082411678967
H            4.94379481127275       -1.22250723509362       -0.01359928881359
H           -2.51239919500669        3.64452524334440       -0.08127383378777
H           -4.06781088614114        3.03630544151019       -0.68912637767049
H           -3.74658055102468        3.06340158018516        1.06431871411516
H           -2.56570782186554       -2.52540004571595        0.09857678771781
H           -1.75002818968141       -3.97143473624763       -0.35801590503479
H           -4.65412544626994       -3.72042451997887        0.00078792384675
H            3.04134596056991       -2.90568953676830       -0.15246065686216
