  25
        -42.12291958
 C          3.2887678803        0.4900297103        0.3180359768
 N          3.3117893565        0.9875338249       -0.9699579222
 C          2.2416357629       -0.5780830719        0.4086333126
 N          0.3186593872       -2.7120181308       -0.0774849245
 C         -0.0143130390       -1.4893656868        0.0558575858
 C          0.9135796771       -0.3626169429        0.1815108487
 C          0.3732532497        1.0001248742        0.0685823155
 O          1.0756323820        1.9931839102        0.0556483861
 N         -1.0024311937        1.1132720903        0.0178882895
 C         -1.5919433624        2.4355073280       -0.0568202875
 C         -1.8984902748        0.0556273238        0.0332551622
 O         -3.0892161477        0.2503524590        0.0229122593
 N         -1.3599424146       -1.2173107135        0.0448469806
 C         -2.2747940697       -2.3358208287       -0.0194906085
 H          3.0819669820        1.2833790411        1.0633387054
 H          4.2711130002        0.0554812638        0.5757313795
 H          3.4900618498        1.9654317677       -1.1510544928
 H          2.5905307122       -1.5832004019        0.5974509652
 H         -0.7940821272        3.1756288496       -0.0134010622
 H         -2.1518814938        2.5422615253       -0.9887733717
 H         -2.2895781848        2.5774798155        0.7712426095
 H         -2.1321213420       -2.9827997889        0.8482310516
 H         -2.0758775664       -2.9263252259       -0.9161269578
 H         -3.2947593423       -1.9522728338       -0.0386038568
 H          1.2800406999       -3.0083661114       -0.1029696069
