25
 energy: -42.104312362290 gnorm: 0.003128619837 xtb: 6.6.1 (8d0f1dd)
C            3.22199250242997        1.12244458259393        0.05778438020088
N            2.28882759103813        0.02803935871917        0.02336702041011
C            2.58427575537177       -1.26825952668378        0.05926907941036
N            1.44553543796884       -1.99955616129583        0.02408432173878
C            0.39152313021582       -1.13784344208177       -0.03769036527104
C            0.91644293989422        0.14879289806916       -0.03606850475094
C            0.09224562684664        1.31736580466460       -0.10348220204448
O            0.44470959027506        2.47608569370497       -0.10908170081962
N           -1.30271313768037        0.96911954371304       -0.16942097291472
C           -2.17908884719793        1.98031135519385       -0.24592196708692
C           -1.84044887127255       -0.35232878802862       -0.17360419363939
O           -3.02385963504152       -0.54175618619114       -0.23747792053420
N           -0.92950490678127       -1.40387791230593       -0.09071449781580
C           -1.43604953890152       -2.76397875999328       -0.09853199336956
H            3.71966451218252        1.16631447202756        1.02760277920565
H            3.97678422309672        1.00031121019245       -0.71872609409039
H            2.67795557610043        2.05220572116084       -0.10307328581262
H            3.57385513033793       -1.67893185483422        0.10615709262775
H           -1.78964091850883        2.98106141687597       -0.25565142306721
H           -3.22646294938810        1.75653060500370       -0.30303204528740
H           -3.11150101512278        4.26736888639821        1.68661033606771
H           -1.10456241234820       -3.29592063481940        0.79310280801471
H           -1.10768638720704       -3.28656046576380       -0.99798976190829
H           -2.52330933451416       -2.71001452751553       -0.09787351180401
H            1.40144745230610       -3.00868474720389        0.03153424044069
