72
 energy: -99.572692959423 xtb: 6.6.1 (8d0f1dd)
N           -1.48534449905191        2.98328299525124        2.22419260871359
C           -1.52964175861017        2.16163670877043        1.28282022697322
C           -2.70225215909028        2.02929558572310        0.34186932798118
C           -3.23445020302842        0.60425830451166        0.39870302541095
C           -4.17533652043281        0.17279914295222       -0.54203863931693
C           -4.71278875309645       -1.09951216930266       -0.49298314225271
O           -5.63516853673534       -1.59772116773286       -1.36148794904029
C           -6.18057132792301       -0.74537519814289       -2.33674422290688
C           -4.29698262924232       -1.99536411496444        0.52051386909092
O           -4.87741329393468       -3.22418811809968        0.48911150331609
C           -4.57413014125167       -4.14020750082951        1.51219656135897
C           -3.36606492439721       -1.56531839396991        1.44729694983110
C           -2.84629646222176       -0.27757432012158        1.38922391580638
C           -2.16725534477493        2.34947559468858       -1.07840421245125
C           -1.32484292014255        1.23996271795446       -1.71554585593857
C            0.02266406887981        1.11540481180922       -1.12927004506982
N            0.66921648269846        0.01836344860573       -0.87430216211726
C            2.01927909131475        0.08979627658414       -0.44555526378156
C            3.00058857022056       -0.28215643412650       -1.54635723547812
C            4.37952610598101       -0.26848307489291       -0.96821537107981
C            5.24952997750518        0.77568241853659       -1.23379503131548
C            6.53681396191202        0.79194090765758       -0.72018519231312
C            6.99051257234446       -0.26679528787214        0.04111031450806
O            8.25266962406420       -0.39533202247965        0.54460433221691
C            9.16712536263426        0.65671970974669        0.34255752975905
C            6.08790268572325       -1.33248564144257        0.33783249886282
O            6.60481958642381       -2.33866197887226        1.07977227739909
C            5.79252457563466       -3.47526646149430        1.22176232376689
C            4.81624008297600       -1.29139062757120       -0.16824822197452
C            0.11225970528993       -1.31237941616562       -0.95154114463099
C           -3.87428026905228        2.99637609591491        0.67200220827118
C           -4.47173416212428        2.70118485843940        2.04638489961454
C           -3.48125110855329        4.47021014828677        0.58645022981031
H           -4.50055015306412        0.85150695676060       -1.31489195631203
H           -6.66279431734668        0.13033466584957       -1.88943789376240
H           -6.92944482593790       -1.34045842838205       -2.85709497121076
H           -5.42367896589098       -0.41459528649594       -3.05676032824740
H           -4.83995328498311       -3.74597376542624        2.49820993267071
H           -5.18022252437623       -5.02014415947851        1.30133551117872
H           -3.51593949203822       -4.41960074571629        1.50411660467826
H           -3.03756608775388       -2.22046467059278        2.23779648910958
H           -2.14536630862706        0.02905130839132        2.15061108349933
H           -3.01488963958707        2.54535165224584       -1.73556928466193
H           -1.57001902600154        3.25991559329795       -1.03493335010420
H           -1.86122684097132        0.29400901715436       -1.68980055628066
H           -1.17064781810195        1.50137421664367       -2.77297867180684
H           -0.69550051414173        1.49843126754774        1.00016842329860
H            0.57138194566741        2.03132357528291       -0.96824600300918
H            2.20335901974720       -0.66779904811205        0.35653267060546
H            2.26451176864975        1.08001146396610       -0.05834664387938
H            2.91390851543022        0.45359108942720       -2.34978553287620
H            2.78191261295301       -1.27831322813174       -1.93074779467507
H            4.92086747692385        1.59065067174281       -1.86119613042581
H            7.18238703053294        1.63176534795628       -0.92974810184766
H            8.82477905483650        1.60224218405335        0.78322837156661
H            9.38949840081200        0.83288940659976       -0.71786413236639
H           10.08171696131567        0.34746004467217        0.84720852104702
H            6.31632195122032       -4.14373412221416        1.90315517978410
H            4.82633879146725       -3.18906970734341        1.63602749165216
H            5.64930939143167       -3.97109406979995        0.25366047492354
H            2.56714306071385       -1.70444207699902        1.23093373261142
H            0.33736687146897       -1.76019267945746       -1.92344701325908
H           -0.96608013746591       -1.30820180689154       -0.81657320187267
H            0.56707072440900       -1.90808123412401       -0.16236927149766
H           -4.65150979658214        2.80797233727845       -0.07878975227339
H           -3.74023492563502        2.90556194449020        2.82224172768471
H           -4.78528783662803        1.66277243940527        2.11771093242950
H           -5.34099862487535        3.33372757482483        2.21006088050904
H           -2.67699137189113        4.67912204422913        1.28340602968858
H           -3.16948209199346        4.74978649116980       -0.41668673953970
H           -4.33739347662695        5.08466987425379        0.85408313905237
H           -0.63812188540649        2.99558025386021        2.78683956735719
