25
 energy: -42.222229989302 gnorm: 0.006635037904 xtb: 6.6.1 (8d0f1dd)
C            3.70202317262706        0.75150519832568        0.02203934466335
N            2.57328756689869       -0.14325787068248        0.00374343223083
C            2.61388307158962       -1.47046353366528       -0.00027843089386
N            1.35425881379416       -1.96484573190143       -0.00160012472417
C            0.49262133299737       -0.90661365940429        0.00212130247385
C            1.25937817700603        0.24355064505733        0.00599974395434
C            0.61845527285532        1.57577210139844       -0.01484572258411
O            1.22025179251985        2.61760579191237       -0.04080186245542
N           -0.74976201811243        1.46582333462525       -0.00631782871775
C           -3.44461631617529        1.60263317111556        0.00418949524936
C           -1.42547237567288        0.37399065437387        0.00149422082928
O           -2.73447420317060        0.35903086434407        0.01009276651196
N           -0.86244509385510       -0.90040142439108        0.00021564679575
C           -1.63194392541485       -2.12871748101223       -0.00890961149334
H            4.18977820477727        0.72280368297119        0.99749739710569
H            4.42375222257512        0.46369659803348       -0.74202183147691
H            3.34569172033439        1.76619959620760       -0.16393114948534
H            3.50555806303498       -2.06456008281592       -0.00374097096859
H           -2.75087895147047        2.44478191931360        0.00771353762641
H           -4.06610491976576        1.62810468144910       -0.89044319832119
H           -4.07959494455234        1.63027130314845        0.88972325998441
H           -1.41225157636100       -2.71820335052542        0.88247717348877
H           -1.40397605090613       -2.70964016812756       -0.90389676096557
H           -2.68840699542584       -1.87585700414442       -0.01242750784808
H            1.11141947397215       -2.94497069400616       -0.00692070307632
