25
 energy: -42.182482077901 gnorm: 0.006476300808 xtb: 6.6.1 (8d0f1dd)
C            3.42777536555735        1.46776892184314        0.57814758388535
N            2.20724753608235       -0.50901736087876       -0.24241795092968
C            2.50094853553637        0.84803566270623       -0.46582186567665
N            0.49220363335685       -3.01181889043849        0.13772004147792
C            0.09259161878655       -1.81115343101388        0.05993533105755
C            0.92384905207037       -0.62997961784325       -0.13302107414854
C            0.30032844009715        0.65761438286455       -0.28227620965445
O            1.21520983377075        1.56045023696482       -0.49783432474483
N           -1.00188793307409        0.82576033135255       -0.20518263244509
C           -1.64301980558712        2.11863390346450       -0.35174842286605
C           -1.85938283713947       -0.30570306447189        0.01545502214265
O           -3.03943517725921       -0.12591640866431        0.08751672220069
N           -1.25915732169819       -1.53842458436184        0.13084629036669
C           -2.13213769567273       -2.68994195065572        0.29136756542642
H            4.35590843157999        0.90372883947007        0.59636485405521
H            3.62892315366696        2.50168281666016        0.30396601717141
H            2.96848091526066        1.43228449542528        1.56599877047935
H            2.95797071608748        0.96459376577075       -1.46279871554600
H           -0.87842941804614        2.88649663870017       -0.43542135304259
H           -2.27506024679791        2.11714725247075       -1.24081212659807
H           -2.28123759008951        2.30621990798197        0.51230290241152
H           -1.77177963001126       -3.29836044939645        1.12008804086670
H           -2.10492423839088       -3.29847871898508       -0.61362893734750
H           -3.14725041047236       -2.34724568471733        0.47700661208828
H            1.48269658646280       -3.20613845265118        0.08541947727059
