72
 energy: -99.555753865338 xtb: 6.6.1 (8d0f1dd)
N           -0.25111107070667        2.74368283504926        1.19523310997457
C           -1.25509948399334        2.08704314453328        0.93903200380596
C           -2.53947491034828        1.90601518210693        0.18180122294599
C           -3.21935341736809        0.53496156433263        0.29872626194220
C           -4.32413843303431        0.19554796958317       -0.50022510291502
C           -4.94807487488813       -1.03938407762450       -0.40906510053956
O           -5.98691082543158       -1.46918414021249       -1.18726906472366
C           -6.54116076299164       -0.60295199717597       -2.14781289576417
C           -4.48358072264714       -1.99196467245504        0.52550227474753
O           -5.13384061005229       -3.18792114898610        0.52091883319034
C           -4.73387675836131       -4.16586554799138        1.44510996718975
C           -3.43286056250966       -1.63738678889609        1.34958123787242
C           -2.82228864425476       -0.39087319229427        1.24244936774175
C           -2.28188715001876        2.22483378028105       -1.32400770282557
C           -1.37561156215016        1.19009258790809       -2.00128428644685
C           -0.06586953070468        1.17330178401973       -1.30291684368717
N            0.54052802511917       -0.02143903774502       -1.01883781813723
C            1.76049106235127       -0.02565310395946       -0.23779453002960
C            2.83698198631875       -0.55104510807470       -1.20470910321336
C            4.23683169314502       -0.40691098135008       -0.69267107422307
C            4.91180365453054        0.79490337786277       -0.81326961454070
C            6.20822109707375        0.93700112538320       -0.33640390158358
C            6.85022176895587       -0.13074533461411        0.26682517800392
O            8.12503127526082       -0.11614645286044        0.74674892553601
C            8.87483087174238        1.06418574656906        0.61788881038939
C            6.16630133525755       -1.36181811756447        0.39716210341977
O            6.87849059470232       -2.35515502322134        0.99464506662948
C            6.29257626948186       -3.62390392084427        1.10757983083639
C            4.87455909042346       -1.48448021722209       -0.08382327527435
C           -0.21740903752581       -1.25272871971609       -0.92999355995898
C           -3.57969666850109        2.94789254218965        0.75048548398350
C           -4.09713786773714        2.64822195245645        2.15704556763688
C           -3.11277497229645        4.39702248320184        0.68452941232841
H           -4.71611516057271        0.90535448152347       -1.21965202428555
H           -6.95951039211077        0.28928423962973       -1.67334203716473
H           -7.34707574884238       -1.16185138763997       -2.62434171243513
H           -5.81336597621344       -0.30142316872362       -2.91456913703026
H           -4.86858825686096       -3.81267915912570        2.47187126811421
H           -5.38274080102828       -5.01914990968124        1.26551468667550
H           -3.68937949430078       -4.46956335434386        1.30145592460540
H           -3.06231495957255       -2.32331366337822        2.08878849973987
H           -2.01259030566621       -0.13408391964262        1.90627569111462
H           -3.22168145130088        2.30971814166298       -1.88218196761478
H           -1.78505398282120        3.19089549638024       -1.38951812992364
H           -1.84553980330454        0.20555037771263       -1.93343475206943
H           -1.27160650590327        1.42464823219925       -3.05630487207346
H           -0.08731784635928        1.83768055421048       -0.52797043947989
H            0.82912950883567        3.08699844738206       -1.24726593341364
H            1.73710016105592       -0.67586383345832        0.65595233037816
H            2.03226654793076        0.96825111807820        0.12141489758456
H            2.73353268835297        0.02832601093066       -2.11589825323039
H            2.61640328254818       -1.59522410020637       -1.43984114559053
H            4.42868476776467        1.63325906839566       -1.29039489966213
H            6.71008337870829        1.88503374902156       -0.45227867645791
H            8.41580715708944        1.89584748910461        1.15393692753012
H            9.01160474105409        1.34561500296973       -0.43407425130452
H            9.84932174298120        0.84514349313643        1.05407955744559
H            7.04973301631302       -4.25371392686682        1.57771819799554
H            5.40539400853441       -3.59193367272693        1.75180559240289
H            6.02879503947382       -4.04810188162552        0.13647575612329
H            4.34874300354354       -2.42620572037538       -0.01519116916013
H           -0.40668286155512       -1.65003034568160       -1.91269210290757
H           -1.17029139051067       -1.16131824962913       -0.38325695216797
H            0.37642703686276       -1.98343378052383       -0.38420009981422
H           -4.46673429193882        2.87375470127129        0.11494936736536
H           -3.26634908762738        2.67653219318286        2.84034226915004
H           -4.58085440227854        1.67478395999553        2.20470122187753
H           -4.83914165435736        3.39498539930640        2.46732279015961
H           -2.19824666553354        4.48826434457406        1.25269682971104
H           -2.92915331532663        4.71899702305049       -0.33448877724873
H           -3.86265271495737        5.07042015994203        1.10842402945208
H            0.23397373134225        3.43407486178475        0.50737031674958
