  25
        -42.06900003
 C          3.0621851727        1.0654642730        0.9259933462
 N          2.3949754099        0.0944936592        0.1066514026
 C          2.9328789941       -0.9815872463       -0.4696414937
 N          2.0524954062       -1.6787591442       -1.1678858246
 C          0.8940348277       -1.0447770282       -1.0488093132
 C          1.0516126046        0.0911683554       -0.2392502242
 C          0.1664462725        1.1289848317        0.1333766533
 O          0.3574823215        2.1606831146        0.6953288463
 N         -1.2694854002        0.8771131766       -0.3324935033
 C         -1.8373546330        1.9031389794       -1.1935015569
 C         -1.9890422022       -0.0383726515        0.1669324127
 O         -3.2311636236       -0.4320508166        0.1593361813
 N         -2.1517360036       -1.0032010196        1.0722714257
 C         -1.8565164825       -2.3950837081        0.9509370515
 H          2.5767653615        1.1404021310        1.8997191985
 H          4.0996014240        0.7669558766        1.0607151817
 H          3.0275654134        2.0491398108        0.4549081561
 H          3.9671462813       -1.2520965507       -0.3814582700
 H         -1.5610415368        2.8772762039       -0.7882182224
 H         -1.4190385686        1.8012355183       -2.1950045052
 H         -2.9207326328        1.8094455972       -1.2306446696
 H         -0.8629561230       -2.5364069548        1.3774204651
 H         -1.8779323481       -2.7643653582       -0.0761292984
 H         -2.5800828468       -2.9374127044        1.5586335662
 H          0.0169802363       -1.3956639950       -1.5566400879
