25
 energy: -42.167662088751 gnorm: 0.006952311670 xtb: 6.6.1 (8d0f1dd)
C            3.16018022662514        1.24244533045636       -0.13655897854780
N            2.28304146091727        0.10353282322641       -0.07540671755950
C            2.63911921011299       -1.17959508816841       -0.10024874113497
N            1.53816764463014       -1.96418194399250       -0.02349546047731
C            0.44404353380563       -1.14482501152573        0.04708277031006
C            0.91367063164925        0.15802132388227        0.02594020904966
C            0.01599702689011        1.29545849776151        0.10990020178374
O            0.33533904723366        2.45891874593150        0.10031972150541
N           -1.31841167528796        0.84775615700993        0.22695371971372
C           -2.35744360547572        1.90451138590751        0.27306263008933
C           -1.76237606153666       -0.41076679797527        0.22803471871121
O           -2.86195866821902        2.16399023371644       -0.98177980425342
N           -0.88101456152052       -1.42394765321847        0.13394195100602
C           -1.35935690762864       -2.79038610405859        0.12698181666373
H            3.72170381544264        1.34042845875160        0.79395988824228
H            3.86240612825019        1.13175903200867       -0.96213683386897
H            2.55897241572443        2.14021778092538       -0.28024164739589
H            3.64452556720855       -1.54397500801054       -0.17094135470814
H           -1.87451069162060        2.82140478328573        0.62799471309430
H           -3.48406717225576        1.47497560397878       -1.25822598934124
H           -3.11874436795892        1.56342850702579        0.98480388531460
H           -1.01402837477652       -3.32495545507103        1.01316393646665
H           -1.01884587556026       -3.30777900246503       -0.77048132530300
H           -2.44664808153491       -2.76413231611237        0.13216309537595
H            1.54067084898574       -2.97406574167134       -0.03361478683555
