  25
        -42.11892494
 C          3.0268085999        0.9198349774        0.2187461988
 N          2.4715191403       -0.4195345913        0.0274144947
 C          3.3971989791       -1.4632264147       -0.0756710518
 N          3.1965139913       -2.6883761723       -0.1746840527
 C         -0.0390043321       -0.1254441407       -0.0072511969
 C          1.1847750887       -0.6432852242       -0.0057022487
 C         -0.4324638170        1.3451732053       -0.0623885084
 O          0.3051439037        2.2927472308       -0.0984074045
 N         -1.7898147662        1.3334831271       -0.0242682515
 C         -2.6412484680        2.4995708698       -0.0241153769
 C         -2.3112041169        0.0402533229        0.0282171168
 O         -3.4645700345       -0.2677884532        0.0599928595
 N         -1.2220518426       -0.8206403905        0.0395350363
 C         -1.3615512935       -2.2481966385        0.0740646812
 H          3.5700869007        0.9646727306        1.1632902845
 H          3.7098925972        1.1387907449       -0.6030784205
 H          2.2339921124        1.6667609687        0.2210726879
 H          4.4278983353       -1.1172323888       -0.0489219060
 H         -2.0189158442        3.3920180623       -0.0354757403
 H         -3.2887309455        2.4806627049       -0.9022598142
 H         -3.2688195833        2.4888963400        0.8687349358
 H         -0.9027085883       -2.6585846168        0.9754510542
 H         -0.8921497514       -2.6964696334       -0.8038750043
 H         -2.4269309184       -2.4776767530        0.0736355470
 H          2.2853919637       -3.1316695203       -0.2030045761
