  72
        -99.27249917
 N         -1.5223286342        2.6634806217        2.4403720119
 C         -1.6079681570        1.9888166555        1.3899956019
 C         -2.8032849414        1.9751673333        0.4777985069
 C         -3.3943487197        0.5744474206        0.4405034513
 C         -4.3573747421        0.2542882304       -0.5190175909
 C         -4.9443345058       -0.9979486855       -0.5661150831
 O         -5.8848187408       -1.3845750421       -1.4589499326
 C         -6.3954809052       -0.4374485093       -2.3658722624
 C         -4.5606569437       -1.9855870204        0.3770812837
 O         -5.1853444541       -3.1792323141        0.2581344932
 C         -4.9384563362       -4.1737491022        1.2229943786
 C         -3.6063204413       -1.6628813094        1.3268991546
 C         -3.0324684020       -0.3973353712        1.3581266344
 C         -2.2736577220        2.3702503567       -0.9265768865
 C         -1.4784768888        1.2678887697       -1.6510112510
 C         -0.1387139716        1.0446519743       -1.0672262443
 N          0.4096201991       -0.1457336155       -0.8111526918
 C          1.7754858627       -0.2193780827       -0.3551331421
 C          2.7672537665       -0.5154570642       -1.4974996390
 C          4.1662818830       -0.2569678355       -1.0082001366
 C          4.6718844739        1.0380064384       -1.0246726269
 C          5.9287442740        1.3296439792       -0.5067613610
 C          6.6181252923        0.2658386068        0.0008474780
 O          7.9401175363        0.5707670146        0.6121126664
 C          9.0651718754        0.1632114065       -0.1981579128
 C          6.1905616294       -1.0657466053        0.0310473094
 O          7.0462784079       -1.9849375742        0.5559220150
 C          6.6192870453       -3.3264126832        0.6456681771
 C          4.9227662072       -1.3041696474       -0.4832256702
 C         -0.3007942433       -1.3805645224       -1.0360632936
 C         -3.9265784392        2.9615974153        0.9123781080
 C         -4.5193236754        2.5721146504        2.2647657494
 C         -3.4674193816        4.4168961097        0.9526840669
 H         -4.6614878827        1.0039412048       -1.2303661793
 H         -6.8408814541        0.4168975092       -1.8468521582
 H         -7.1677953747       -0.9585281556       -2.9282724684
 H         -5.6235082759       -0.0837514828       -3.0577221595
 H         -5.1922094980       -3.8277328527        2.2296450244
 H         -5.5843811625       -5.0075802411        0.9549010189
 H         -3.8947670711       -4.5045895479        1.2032855326
 H         -3.3070650408       -2.3878201967        2.0665273265
 H         -2.3154798839       -0.1741426508        2.1331251544
 H         -3.1214930182        2.6437499536       -1.5540558485
 H         -1.6412652289        3.2532364716       -0.8258729890
 H         -2.0622980467        0.3494773399       -1.6759698398
 H         -1.3447713249        1.6070566364       -2.6870058244
 H         -0.7875196469        1.3622266027        0.9960639662
 H          0.4978391826        1.9052704772       -0.9305193326
 H          1.8578726706       -0.9939604792        0.4121165337
 H          2.0492697260        0.7364626686        0.0980718019
 H          2.5397799860        0.1459990560       -2.3356182799
 H          2.6568879659       -1.5476545220       -1.8320403565
 H          4.0758101142        1.8334988413       -1.4498244126
 H          7.9413082221        1.5453858354        0.6940739800
 H          9.9771371352        0.4820330042        0.3034127688
 H          9.0069065102        0.5931437046       -1.1991025236
 H          9.0427946353       -0.9247203175       -0.2590213245
 H          7.4400018488       -3.8636713683        1.1168999408
 H          5.7234077874       -3.4171533445        1.2655423067
 H          6.4275882567       -3.7484840301       -0.3449014350
 H          4.5159437608       -2.3032571036       -0.4870108234
 H         -0.5228702744       -1.5212889784       -2.0962372172
 H         -1.2403693198       -1.3899650448       -0.4769543939
 H          0.3115686021       -2.2124304550       -0.6979230847
 H         -4.7205466662        2.8764578997        0.1612184208
 H         -3.7673261101        2.6674489301        3.0411430495
 H         -4.8875092326        1.5491555542        2.2519877022
 H         -5.3497445705        3.2317864012        2.5025040587
 H         -2.6560716055        4.5339263931        1.6639765601
 H         -3.1433086590        4.7678562987       -0.0234537386
 H         -4.2959250404        5.0431036049        1.2734448946
 H         -0.6488898194        2.6090423245        2.9564378073
