72
 energy: -99.591975610611 xtb: 6.6.1 (8d0f1dd)
N           -1.52359701899697        2.96322813970295        2.24931038137229
C           -1.51974287054550        2.18736540418739        1.26196225763946
C           -2.68325458096204        1.99814310687432        0.32836502926015
C           -3.18035543108935        0.56168745107955        0.42639518003487
C           -4.10648648585050        0.08320112978293       -0.50353741777875
C           -4.61533894974951       -1.19877048479484       -0.42428467888855
O           -5.52323353948216       -1.73848503822554       -1.28482355040317
C           -6.06418805805130       -0.92756342343239       -2.29592577617943
C           -4.19040709959552       -2.05573584853539        0.61622822247001
O           -4.74935994938975       -3.29741839433440        0.61685498730937
C           -4.44357080608330       -4.17278117864630        1.67220815153684
C           -3.27202883135131       -1.58266083662467        1.53416154449720
C           -2.77580747819332       -0.28704859630833        1.44035341385133
C           -2.13961258970144        2.27512953834878       -1.09859280403291
C           -1.22095916467909        1.17986775092350       -1.66726551193137
C            0.13948627705743        1.21062715952397       -1.08498998566842
N            0.85796923128597        0.11285089896329       -0.71795719670759
C            2.27615282870988        0.24318207977742       -0.51785228672135
C            3.06461129630901        0.05696517871912       -1.84157357681353
C            4.50867835026586       -0.07067183312378       -1.50467195334925
C            5.31505820280631        0.98871369477603       -1.11254181397696
C            6.56337395797502        0.73043000661290       -0.54955212411399
C            6.84510433460113       -0.50239156290791        0.02187759069439
O            8.11311380474277       -0.79959789167996        0.50772760713345
C            9.10480010660533        0.21991625639337        0.56786189707692
C            5.74949709208800       -1.46077098252602       -0.04867955534574
O            4.67226418200504       -1.83528637818842        0.87138891316019
C            4.89533931638788       -3.06889452937323        1.51558693628955
C            4.91581163879498       -1.34202732783945       -1.17901736694895
C            0.30082666128741       -1.21038493352642       -0.77122017854694
C           -3.88483116855725        2.94078216717097        0.62588869357585
C           -4.49860830411643        2.65355420473373        1.99510976978915
C           -3.52493531902560        4.42218887010968        0.52704742169316
H           -4.43940104751339        0.73293030257759       -1.29617637340998
H           -6.58226841055417       -0.05554818975818       -1.88192637042324
H           -6.78325277739422       -1.55663953628981       -2.81870281676186
H           -5.29824612414555       -0.59320494923902       -3.00431015009187
H           -4.72719896637225       -3.75084623365904        2.64217253122337
H           -5.03206341213742       -5.06980724413730        1.48471274688598
H           -3.38004335051819       -4.43531115710575        1.68846617702643
H           -2.93637604340972       -2.21025790532986        2.34473308053848
H           -2.08026908918772        0.05481083836722        2.19104601920597
H           -2.98685356499968        2.39895561771967       -1.77428344857123
H           -1.58884260586207        3.21741935550147       -1.08495310686160
H           -1.68678773864201        0.20525053540025       -1.53182983684296
H           -1.14783989792666        1.35827245656423       -2.75070387593180
H           -0.64367687355135        1.59539825489031        0.95690972921051
H            0.66489173284053        2.14891098684337       -1.05474955218956
H            2.60006233690747       -0.49552518341961        0.22340564822348
H            2.48954049643250        1.23294513752250       -0.10637194158273
H            2.88716761155122        0.90020244115433       -2.49792481195134
H            2.72693583820576       -0.86851504859732       -2.30747462941841
H            4.97167801212319        2.00162959848764       -1.22733059108657
H            7.23788070678254        1.56122877914899       -0.39067497672095
H            8.83304937896588        0.97341901897747        1.31481530327292
H            9.30616151325443        0.72729847337342       -0.38633350054092
H           10.03460312123195       -0.25803116602411        0.88796090837636
H            5.85780981775897       -3.29130307385217        1.00921425431732
H            4.88482713390470       -2.85837446001958        2.59502162938897
H            4.12995604764356       -3.84437604849797        1.32799372189083
H            4.31979747760968       -2.22791013118267       -1.37024983357257
H            0.07851586808472       -1.53042165717984       -1.79522386542162
H           -0.62571623669968       -1.25420569636486       -0.19224653533346
H            1.01664269138031       -1.90579853369355       -0.33615332550121
H           -4.64653421172463        2.72394281640051       -0.13320911871067
H           -3.77900818872335        2.87692821246815        2.77558884928750
H           -4.79657997789511        1.61070447606535        2.07820646509504
H           -5.37978622029963        3.27484049544690        2.13978940678756
H           -2.73749510571760        4.66150439050357        1.23453535331594
H           -3.20129706920604        4.69295272281888       -0.47468385472679
H           -4.40024330340326        5.02100606572550        0.76888713981190
H           -0.66105671156292        3.00331848813212        2.78850256323278
