25
 energy: 0.000000000000 xtb: 6.6.1 (8d0f1dd)
C            3.23720163006194        1.16630919979326        0.08434469647475
N            2.29877817382611        0.07527477071623        0.03981603040599
C            2.58028210190900       -1.21425402444508        0.03006176031096
N            1.43813958087363       -1.93419271955128        0.00098261760884
C            0.39035688448383       -1.05887472636071       -0.00790371836672
C            0.93510056364412        0.21347819449412        0.01709077491437
C            0.09450143893243        1.40504303904423       -0.00410947031874
O            0.49712751527797        2.54126714362870       -0.00342325688240
N           -1.25076640035757        1.06271879480407       -0.03085478223738
C           -2.21907211982101        2.15522099834493       -0.05001256985998
C           -1.81739487048744       -0.20012725993278       -0.04692818574614
O           -2.99983886758376       -0.37846417018721       -0.07008878229737
N           -0.92618586207120       -1.30210215599479       -0.03682761578324
C           -1.46982264913417       -2.64643102187190       -0.06029820460571
H            3.71247264356769        1.21471455160235        1.06488849150277
H            4.00791497605742        1.03430808813993       -0.67357694370751
H            2.69910007168542        2.09770118228144       -0.09130154882931
H            3.56654120610678       -1.63682992603973        0.04233140067262
H           -1.67107961066214        3.09322851271934       -0.02552706933167
H           -2.82428953597071        2.09428624779827       -0.95318082946668
H           -2.87644029173232        2.07745725625962        0.81450067533302
H           -1.17061996399332       -3.19584890659852        0.83242232437030
H           -1.14560257411436       -3.17511610292205       -0.95688275822323
H           -2.55549792440841       -2.55659984320617       -0.07459039797972
H            1.38130855184625       -2.94313852034425       -0.01389874181052
25
 energy: -3.123278688633 xtb: 6.6.1 (8d0f1dd)
C            3.24922899452798        1.17813122528238        0.08038917488279
N            2.30725573196278        0.09914657814410        0.03947947544116
C            2.60225216522117       -1.22555572779761        0.03079223385840
N            1.43103646094984       -1.93647690016810        0.01277358028889
C            0.38704272568201       -1.05763489233420        0.00105174838849
C            0.92673121099652        0.21903752457070        0.02220018354421
C            0.09621351371159        1.38694688326757        0.00834089076514
O            0.50584172477884        2.54997746060270        0.01762884687179
N           -1.27536946841458        1.04127723372931       -0.04562491614762
C           -2.20783327135689        2.16078888099594       -0.02479680096773
C           -1.88160348832891       -0.21302628502621       -0.15781349741207
O           -3.08626680753129       -0.37444201889038       -0.23863649784298
N           -0.95399557679527       -1.30380102698186       -0.04208537190682
C           -1.46338618713110       -2.65500747298407       -0.02989569534690
H            3.73198701576534        1.22643487576400        1.06025935160172
H            4.01726377530615        1.03701974695280       -0.68233326256498
H            2.70958766052380        2.10576166623654       -0.09818454932697
H            3.58497613754604       -1.64416375095727        0.03169933697605
H           -1.64609231596385        3.09393546427663        0.01538769029015
H           -2.81330298788283        2.12259134436250       -0.92721921795989
H           -2.85756700038795        2.07780874359843        0.84543050211983
H           -1.11912861822133       -3.20696390222670        0.84869044958033
H           -1.16393328233146       -3.18065551164771       -0.93692594073746
H           -2.54695679279857       -2.57113788478700        0.00182531961243
H            1.37823334810819       -2.94096365181051       -0.00539913786068
25
 energy: 9.343940140961 xtb: 6.6.1 (8d0f1dd)
C            3.26547073947729        1.18872305971566        0.07364029918676
N            2.31285333212261        0.12720480878424        0.03912161904879
C            2.62244571708902       -1.23481317226494        0.03319147367240
N            1.41907870871977       -1.93232263736828        0.02868191417945
C            0.37799081294733       -1.05499370025385        0.01989547788685
C            0.91368163659940        0.22506545533701        0.03421867920132
C            0.09724584823474        1.35691754626531        0.02620231276187
O            0.50805347493945        2.54250220176062        0.04692419863083
N           -1.31304122200506        1.00999010017178       -0.06233139425437
C           -2.18934229968912        2.17284220372559        0.01599300774253
C           -1.97900509415727       -0.23391182534707       -0.32979125243843
O           -3.19473837468512       -0.36543300893498       -0.54371486260368
N           -0.99425622939701       -1.30209314956652       -0.04434345773386
C           -1.45018271320261       -2.66721645690093        0.01954252028704
H            3.76094919115314        1.24145232280789        1.05051036931589
H            4.03129981011130        1.03774823153161       -0.69398032362206
H            2.73108152774397        2.11716515535559       -0.10820143791628
H            3.60322363606552       -1.64334991162932        0.01580527940150
H           -1.60754304589398        3.09759935139604        0.07910666534720
H           -2.80249298609879        2.17490616150866       -0.88025986695691
H           -2.82287791611727        2.08461661908943        0.89881683605339
H           -1.02231918812688       -3.22330244253478        0.86909657537342
H           -1.20846885941300       -3.19305853794597       -0.90822962214376
H           -2.53156467549346       -2.60264727147063        0.14069203133719
H            1.38467283701228       -2.93456250106015        0.00644685439027
25
 energy: 29.709436867966 xtb: 6.6.1 (8d0f1dd)
C            3.27749578454044        1.19236295026997        0.07304538979363
N            2.31198489709338        0.14171871396626        0.04360279396648
C            2.62704555934488       -1.23708914351918        0.04214677393316
N            1.41039211400258       -1.92744748409975        0.03765214174233
C            0.36523368641430       -1.05518566923922        0.01894763732753
C            0.90416835894853        0.22510350170384        0.03940653968105
C            0.08794820170663        1.34003768045318        0.02604628938082
O            0.49783614277686        2.53283711308606        0.07003501233394
N           -1.34988523273439        0.98786840869370       -0.09411399281195
C           -2.17572758647871        2.18643184897320        0.05482905626830
C           -2.05748406839849       -0.24990524084833       -0.50131042698696
O           -3.26198547246627       -0.35636566918125       -0.81119888927893
N           -1.02787985837431       -1.29937116640383       -0.06709071116488
C           -1.43753663033637       -2.67913705252980        0.06531595263755
H            3.78226580818155        1.25072089212424        1.04674830478789
H            4.04369896026614        1.03278392011708       -0.69496146899258
H            2.75651854213667        2.12779273969180       -0.11330221301542
H            3.61171124772423       -1.63523817236142        0.00943773611511
H           -1.57011772246035        3.09835062740229        0.14223235054863
H           -2.80146933945655        2.23960120060955       -0.83046906738169
H           -2.78546359422632        2.09099899087437        0.95516908407124
H           -0.91567280163371       -3.22705238868335        0.88159222459659
H           -1.26881443691128       -3.21355944036187       -0.87955053767953
H           -2.51225682595590       -2.64638196374168        0.29421400119352
H            1.40020893423279       -2.93084659482383        0.01860991508152
25
 energy: 43.418248548906 xtb: 6.6.1 (8d0f1dd)
C            3.28253749510780        1.18980018926512        0.08164313800065
N            2.30569098341576        0.14362964651409        0.05289492512673
C            2.61953224805050       -1.23171333939248        0.05635895261557
N            1.40777845659655       -1.92359518180561        0.03325003652590
C            0.35262276771427       -1.05808354878609       -0.00433325263418
C            0.89900986710125        0.21995537046299        0.03385463881383
C            0.07353087288114        1.33646081189368        0.00434611932214
O            0.48584156239530        2.52081185998335        0.07274528596742
N           -1.37834726530809        0.97825191999353       -0.13543874566289
C           -2.16845208018532        2.19538924114721        0.08210238050834
C           -2.11002106101330       -0.25870274813724       -0.62599487263690
O           -3.28737231388702       -0.34525483023704       -0.97887549754362
N           -1.04863952341002       -1.29852673225897       -0.10406478710107
C           -1.42652735382323       -2.68656437368222        0.09774732479560
H            3.78913455799521        1.25093493551206        1.05417665644195
H            4.05171003998039        1.02270914936062       -0.68232898948429
H            2.77820730264540        2.13439938013854       -0.10989071225498
H            3.61106767240265       -1.62010431748923        0.01366612699272
H           -1.54348598051406        3.09441149283524        0.18780172734461
H           -2.81189531736830        2.30018213478756       -0.78473637449264
H           -2.74918622587192        2.09022375880296        1.00228509143132
H           -0.82856024244409       -3.21622916165120        0.87841893908138
H           -1.33289293042282       -3.23881679354582       -0.85114335798090
H           -2.48164109051901       -2.68098504480797        0.42702708552180
H            1.42257222641733       -2.92955521673106        0.02552205744887
25
 energy: 46.676458345873 xtb: 6.6.1 (8d0f1dd)
C            3.27954502779195        1.18394994610121        0.09051016288990
N            2.29602765721469        0.13722063472750        0.06189630665267
C            2.60544260935095       -1.22032197897416        0.06859773247956
N            1.41001343002472       -1.92125442533933        0.02157037404092
C            0.34360226669875       -1.06202152885339       -0.02477895261285
C            0.89662670792657        0.21308359096141        0.02764635998836
C            0.06295194611201        1.34044118666722       -0.01566265241297
O            0.48085017170885        2.50752116689154        0.06021086947592
N           -1.38868507490612        0.98089352558426       -0.15790539216299
C           -2.16588823056880        2.19490298926290        0.09426986398963
C           -2.13054079770306       -0.26003196949530       -0.66619133899765
O           -3.27993790137907       -0.33274674126542       -1.07846164596788
N           -1.05210060248698       -1.30176365475132       -0.12418140482845
C           -1.42041825117565       -2.68666404443080        0.11477764468061
H            3.78325723795971        1.24391375945979        1.06344633431481
H            4.05101684786793        1.01128652139009       -0.66910416737443
H            2.78782126108846        2.13511667604821       -0.10414016307926
H            3.60323472746095       -1.60192136276819        0.01520903178633
H           -1.53357644558611        3.08634406949008        0.20425930124393
H           -2.82588699698712        2.33311507666992       -0.75077821145616
H           -2.72396366239947        2.08203802197964        1.02800109457515
H           -0.78363724501427       -3.20259743054946        0.85971212415094
H           -1.38229133297985       -3.25457879315569       -0.82496494314858
H           -2.44492337561751       -2.68795340847265        0.50712077159335
H            1.44367469353479       -2.92894322500606        0.02597479632648
25
 energy: 43.185763952122 xtb: 6.6.1 (8d0f1dd)
C            3.27229731607228        1.17886793222290        0.09841975763695
N            2.28721091020758        0.13001101666673        0.06769441036248
C            2.59313581808283       -1.21017401427608        0.07983581995561
N            1.41176247802606       -1.92092230743866        0.00971794569471
C            0.33881403200387       -1.06402465783947       -0.04284514719490
C            0.89416937557142        0.20879185506391        0.01699426382915
C            0.05834585345066        1.34429320222526       -0.03255673514206
O            0.48055771402404        2.50009754933652        0.05531817209478
N           -1.38374812657290        0.98914673059795       -0.17105783454672
C           -2.16570579252886        2.19133139527610        0.09426757057984
C           -2.12500193901243       -0.25647596247134       -0.66412863779306
O           -3.25131329244700       -0.32275419761560       -1.10040990918313
N           -1.04424557758062       -1.30733221861038       -0.13838404908775
C           -1.42051000138993       -2.68479699590204        0.11847846534626
H            3.76964657503197        1.23626451227571        1.07379485504594
H            4.04636940101625        1.00251586496715       -0.65669358283620
H            2.78542467711894        2.13135865581530       -0.09895710489478
H            3.59292704057046       -1.59073143488432        0.01941762862712
H           -1.53467368037090        3.08221420504663        0.20138642465523
H           -2.83640606218182        2.34271113513576       -0.73614153481691
H           -2.71449314659309        2.07271077222506        1.03169962985289
H           -0.74764404609939       -3.19535079473477        0.83171369059888
H           -1.42518742572020       -3.25742249498929       -0.81699653969147
H           -2.42171186943790       -2.68301396251637        0.56100668916561
H            1.45219443669501       -2.92828718340468        0.02545964788888
25
 energy: 40.393500982904 xtb: 6.6.1 (8d0f1dd)
C            3.26742318734269        1.17794260691657        0.09822339516479
N            2.28345569900203        0.12786855686986        0.06909184044021
C            2.58932452806414       -1.20616266191102        0.08747049164537
N            1.41245818114781       -1.92190183517437        0.00573511305806
C            0.33819014145004       -1.06423460351181       -0.04402331130242
C            0.89213062556659        0.20814702280471        0.01337374808456
C            0.05670185938870        1.34498846824089       -0.03148358969522
O            0.47998366972105        2.49994466322912        0.06129154231339
N           -1.37523854294162        0.99451362503508       -0.17137456535490
C           -2.16615934710979        2.18869170623128        0.09269813906987
C           -2.11264660874112       -0.25320575492090       -0.64566317553383
O           -3.23048754603535       -0.31760134875809       -1.12987309259797
N           -1.03569200147805       -1.31200595782162       -0.14093440872996
C           -1.42195006114620       -2.68430739827641        0.12009936155183
H            3.76236087534155        1.23430458538760        1.07464350698926
H            4.04169681320444        0.99933612920796       -0.65575186782693
H            2.77978202977043        2.12908695010733       -0.10002766092736
H            3.58816689687412       -1.58888575690387        0.01701618600754
H           -1.53730807272223        3.08171445442547        0.19745353111071
H           -2.84246765472015        2.34079364694274       -0.73270902519068
H           -2.71288500662070        2.06741085810383        1.03059872114683
H           -0.73903699708549       -3.19614111129506        0.81395242733686
H           -1.45008200600713       -3.25797386704951       -0.81109833037514
H           -2.40715357051698       -2.67504548850969        0.58250623691594
H            1.45164757618754       -2.92824888719807        0.02581868284654
25
 energy: 37.838067081326 xtb: 6.6.1 (8d0f1dd)
C            3.26528033966256        1.17855009636259        0.09917002973759
N            2.28237634829945        0.12826019768692        0.06923295532613
C            2.58960288943119       -1.20585694641480        0.09479052474627
N            1.41177918830509       -1.92269228729041        0.00459734693761
C            0.33853542499484       -1.06333836655976       -0.04774090413164
C            0.89061709903630        0.20891961391769        0.00769610393119
C            0.05472221585619        1.34320961521990       -0.03244878961497
O            0.47780176541664        2.50064610608775        0.06946352801281
N           -1.36980265866093        0.99720280780218       -0.17740608054471
C           -2.16707708244912        2.18880084035563        0.09089683859224
C           -2.10318492661631       -0.25091710264799       -0.64687960334347
O           -3.21354592197714       -0.31682332811873       -1.12077792587441
N           -1.03045680694103       -1.31460245395286       -0.15146891435853
C           -1.42387286729688       -2.68481149486182        0.11966180821328
H            3.75858125116007        1.23486916311683        1.07650440219491
H            4.04059375704340        0.99942268447433       -0.65352690756647
H            2.77616987789306        2.12849305291106       -0.09973040781386
H            3.58645964388680       -1.59145265833347        0.01742358719616
H           -1.53948577127117        3.08380400069795        0.19612421266404
H           -2.84471400782048        2.33828065520054       -0.73503994558010
H           -2.71393839538946        2.06419248196611        1.02835706809492
H           -0.72987829891931       -3.19829866747670        0.80147827654148
H           -1.47037633919550       -3.25790853374425       -0.81098162747213
H           -2.40107891312511       -2.67050967816096        0.59934505535161
H            1.44710685661322       -2.92841119606568        0.02829326490741
25
 energy: 37.363970574049 xtb: 6.6.1 (8d0f1dd)
C            3.26610881350135        1.17971886780439        0.09820500791486
N            2.28363508209037        0.12988008092032        0.06890579273626
C            2.59230613043158       -1.20781444865677        0.09905392248656
N            1.41106821272779       -1.92292578925517        0.00695938208882
C            0.33942897253009       -1.06266267299780       -0.04441429140535
C            0.89073193750441        0.20981811256650        0.00880496903575
C            0.05329064047919        1.34108407253446       -0.02625420719993
O            0.47582994626254        2.50079768534009        0.07374561047544
N           -1.36867989935887        0.99706192093344       -0.17576292033633
C           -2.16801536906871        2.18911732198383        0.08999464188195
C           -2.10007816234430       -0.24996059048244       -0.64704701455797
O           -3.21011178034894       -0.31744452204200       -1.12365891702382
N           -1.03008974700139       -1.31492146987972       -0.15576390758646
C           -1.42554788203669       -2.68462437818765        0.11875272913658
H            3.76085942263456        1.23672558646828        1.07498748578802
H            4.04098909158015        1.00137499825008       -0.65526968212673
H            2.77585628801580        2.12941211529016       -0.09995382103496
H            3.58763186528313       -1.59476625855687        0.01277017543142
H           -1.54101903665518        3.08470272239785        0.19484325360725
H           -2.84312634232755        2.33261391676444       -0.73893384915749
H           -2.71589875877478        2.06453977681552        1.02677434822959
H           -0.72654850769991       -3.20100426968109        0.79533712743790
H           -1.47956311787153       -3.25482454275068       -0.81242776096191
H           -2.40033930194328       -2.66815192822850        0.60679214376593
H            1.44349617032651       -2.92871770517867        0.03059367752202
25
 energy: 36.829059848910 xtb: 6.6.1 (8d0f1dd)
C            3.26734280910815        1.18084093158250        0.09722551498255
N            2.28521139253325        0.13128466527295        0.06906146864395
C            2.59518140931320       -1.20969457217383        0.10491771524166
N            1.41088291972146       -1.92281073519063        0.01021879514483
C            0.34073600474110       -1.06235694061705       -0.03972563654554
C            0.89168367040507        0.21026203642271        0.01082902470779
C            0.05134206135138        1.33890139462079       -0.02071067309684
O            0.47311058265871        2.50017299715710        0.07652928489149
N           -1.36824039184879        0.99609795766159       -0.17417555849054
C           -2.16930335260801        2.18922700647794        0.08962128977597
C           -2.09651576706164       -0.24942507845056       -0.64799371095274
O           -3.20680788219216       -0.31889737001441       -1.12485039398108
N           -1.02995716686428       -1.31516077518754       -0.16064728548108
C           -1.42701007001754       -2.68415846239545        0.11813634132049
H            3.76440711523200        1.23874845400820        1.07297025672462
H            4.04129032295107        1.00368440936920       -0.65770910429102
H            2.77629817829691        2.13066224877417       -0.09996155984716
H            3.58891565150304       -1.59708018658290        0.00410404052969
H           -1.54239435376872        3.08468853560343        0.19440004632588
H           -2.84296049358255        2.32833975464567       -0.74238868193379
H           -2.71733892679791        2.06521009935658        1.02641674082040
H           -0.73197041542460       -3.20176453259766        0.79173918928928
H           -1.48551215327593       -3.25404002452624       -0.80972427080690
H           -2.39707695862000       -2.66474490624051        0.60558755994105
H            1.44090048218318       -2.92895830480403        0.03316350323440
25
 energy: 36.641131611177 xtb: 6.6.1 (8d0f1dd)
C            3.26754148484499        1.18080188863978        0.09839967227945
N            2.28539495626314        0.13136524760060        0.06999479345533
C            2.59550843609320       -1.21000471507917        0.10858743341179
N            1.41094907264510       -1.92264760256083        0.01031234080436
C            0.34100138022212       -1.06249585726730       -0.03996375546329
C            0.89221676671173        0.21004126588111        0.01122548765584
C            0.05096711104892        1.33861955596079       -0.02077491479757
O            0.47289915450886        2.49969787169061        0.07567664580601
N           -1.36849626940658        0.99549745661071       -0.17345759315107
C           -2.16953727613276        2.18890812315232        0.08885601469299
C           -2.09587095569689       -0.24939233861646       -0.64716978937327
O           -3.20669507484604       -0.31891865196884       -1.12537067807340
N           -1.03029577617503       -1.31500143564928       -0.16336021164271
C           -1.42744582211578       -2.68357513007181        0.11717798018664
H            3.76481312068727        1.23864719110993        1.07401700055325
H            4.04141493317641        1.00388477557521       -0.65680163745107
H            2.77670036326588        2.13080727967674       -0.09879042210874
H            3.58872432958332       -1.59657592720443        0.00040295371534
H           -1.54273402660644        3.08416307754017        0.19285232189911
H           -2.84309831291719        2.32721897728733       -0.74344482313889
H           -2.71745198337036        2.06571466338094        1.02568133322157
H           -0.72599658333140       -3.20163637496695        0.78784771192440
H           -1.49270637163152       -3.25320706932716       -0.81217751457928
H           -2.39672030869084       -2.66394026898266        0.61379284280461
H            1.44113231980623       -2.92894340023934        0.03352070351600
25
 energy: 36.494002215854 xtb: 6.6.1 (8d0f1dd)
C            3.26724513284596        1.18045591883870        0.09923821795080
N            2.28494266792683        0.13105618798533        0.07071305174002
C            2.59483753094597       -1.20984716305679        0.11165718104262
N            1.41093020527345       -1.92251245349766        0.00981557594412
C            0.34088883246900       -1.06265885669505       -0.04109168674727
C            0.89236891920378        0.20979029640968        0.01092534735628
C            0.05116101461806        1.33905753586227       -0.02246150109621
O            0.47328433228924        2.49952027825865        0.07457341042190
N           -1.36882088792679        0.99504340792904       -0.17346023838735
C           -2.16941014886118        2.18862559645418        0.08868922103888
C           -2.09542059746925       -0.24958551477322       -0.64713442509646
O           -3.20691657908744       -0.31891159486598       -1.12372504622362
N           -1.03059720642280       -1.31474743871076       -0.16449412852664
C           -1.42744156464855       -2.68307673984444        0.11702554001439
H            3.76428514706381        1.23808579625678        1.07488609182968
H            4.04119253662691        1.00328625418513       -0.65590881180436
H            2.77684047740681        2.13059807578945       -0.09824805264556
H            3.58785369259456       -1.59530366099981       -0.00258301077526
H           -1.54250076831923        3.08370169865507        0.19238704915241
H           -2.84317387982876        2.32753163393333       -0.74308459143451
H           -2.71724433212087        2.06562270294105        1.02552064725969
H           -0.72459197629955       -3.20074143844731        0.78697830449095
H           -1.49347298900328       -3.25321874026852       -0.81148038774363
H           -2.39588599105029       -2.66391574242414        0.61497586466947
H            1.44186109970998       -2.92882743774299        0.03332027371702
25
 energy: 35.984235733309 xtb: 6.6.1 (8d0f1dd)
C            3.26672153652356        1.18002561581581        0.10087529635514
N            2.28419282668546        0.13079445429817        0.07236383479509
C            2.59392156499938       -1.20990536840096        0.12208144436290
N            1.41076945820681       -1.92223122697114        0.00927091789290
C            0.34102403939868       -1.06272377411139       -0.04349782020902
C            0.89274159013315        0.20960002124926        0.01003707819056
C            0.05168549310911        1.33977315270227       -0.02513824320844
O            0.47371641269848        2.49941150957630        0.07275372883404
N           -1.36924315188780        0.99363523050548       -0.17331498567588
C           -2.16931354289760        2.18772679758396        0.08813749764137
C           -2.09297267258614       -0.25025867267968       -0.64764496389657
O           -3.20652364696541       -0.31964279743379       -1.11981331328435
N           -1.03086281120884       -1.31418585155856       -0.16802178576521
C           -1.42735014796852       -2.68194075801680        0.11649560198273
H            3.76342188031232        1.23744893349737        1.07652526415091
H            4.04078449435352        1.00225875121725       -0.65418367151517
H            2.77698481665778        2.13028390089648       -0.09729139157601
H            3.58597013604575       -1.59279430891966       -0.01238076448420
H           -1.54204733996477        3.08249143792142        0.19179731711077
H           -2.84346215701577        2.32787025521647       -0.74306400530478
H           -2.71715070957061        2.06499060534297        1.02497886869373
H           -0.72326634997453       -3.19869326775549        0.78442282499021
H           -1.49733498673835       -3.25402012354322       -0.81014366936502
H           -2.39298182054740       -2.66236277806822        0.61803156581417
H            1.44278975613803       -2.92852313619228        0.03375726961751
25
 energy: 35.730549720152 xtb: 6.6.1 (8d0f1dd)
C            3.26661918238530        1.17993779719556        0.10101678352828
N            2.28403509700994        0.13077744244652        0.07277099899433
C            2.59373423505778       -1.21025741661246        0.12840674071625
N            1.41026433336985       -1.92226012080231        0.00951343685819
C            0.34096594761741       -1.06242672804536       -0.04457996237071
C            0.89263655919911        0.20984382967103        0.00912031626609
C            0.05215732576323        1.34001438744920       -0.02533879344087
O            0.47353679376829        2.49977910037161        0.07250678612183
N           -1.36912880694976        0.99328944276992       -0.17338781889563
C           -2.16936876356306        2.18729372785330        0.08793607686059
C           -2.09146859712351       -0.25063066125032       -0.64799089023861
O           -3.20596663395438       -0.32018824941250       -1.11841742083470
N           -1.03080343507269       -1.31392534894834       -0.16872125481102
C           -1.42750918442927       -2.68157724769081        0.11631422936475
H            3.76327251953850        1.23760942280742        1.07666992872954
H            4.04073727561862        1.00181681787362       -0.65387394169311
H            2.77693741472242        2.13010257595776       -0.09745657545214
H            3.58472736861891       -1.59245533805638       -0.01753095593834
H           -1.54193180052364        3.08204911976272        0.19207382116213
H           -2.84336662489761        2.32789438290945       -0.74327080615495
H           -2.71748756752973        2.06442053678582        1.02466857727974
H           -0.72253549732101       -3.19847415973101        0.78313793010605
H           -1.49775582885567       -3.25341492969600       -0.80970237774603
H           -2.39213498705830       -2.66176831834573        0.61831920796788
H            1.44204834254560       -2.92842146309069        0.03484985976783
25
 energy: 35.677199559398 xtb: 6.6.1 (8d0f1dd)
C            3.26675312396276        1.18004810502901        0.10069561675050
N            2.28430837178234        0.13079307793110        0.07272048844524
C            2.59401061027537       -1.21044522517575        0.13228290939218
N            1.40995588214790       -1.92231104681201        0.01014456105255
C            0.34098539282588       -1.06202839134551       -0.04519351997990
C            0.89260430464536        0.21017261754392        0.00819551224897
C            0.05268725518380        1.34016396992617       -0.02504998884297
O            0.47317879436118        2.50026157110751        0.07283149224912
N           -1.36883851394669        0.99363508670089       -0.17387182261953
C           -2.16942067291081        2.18707815994830        0.08802348887533
C           -2.09094610247936       -0.25098591544484       -0.64824760346072
O           -3.20550803601200       -0.32065999533729       -1.11861073848503
N           -1.03040847806072       -1.31373655337331       -0.16782705996043
C           -1.42730867225112       -2.68175118914199        0.11617195530877
H            3.76343937492185        1.23801761286559        1.07636446080437
H            4.04087128873176        1.00178304075532       -0.65406953405100
H            2.77686380245410        2.13005601479238       -0.09786046838429
H            3.58393301933115       -1.59280498370568       -0.02048862806821
H           -1.54210470953713        3.08197181583877        0.19270036179031
H           -2.84321029063963        2.32804504755603       -0.74315894149748
H           -2.71777107503126        2.06378941713055        1.02464294314636
H           -0.72333123682407       -3.19857003779166        0.78321465880691
H           -1.49731226207127       -3.25354574592619       -0.81064584830346
H           -2.39233246465256       -2.66159829864065        0.61793842587568
H            1.44111596172950       -2.92834955225869        0.03613117505412
25
 energy: 35.736659685805 xtb: 6.6.1 (8d0f1dd)
C            3.26685187674294        1.18006641132292        0.10044462541989
N            2.28452819346306        0.13070470626798        0.07269647696921
C            2.59429583994865       -1.21061498019296        0.13460956540465
N            1.40972179918247       -1.92235072159555        0.01111344077607
C            0.34089029592029       -1.06192921235931       -0.04491563865441
C            0.89273104640940        0.21016997875221        0.00785477933281
C            0.05281182271084        1.34008584804704       -0.02492886075888
O            0.47286514299664        2.50026826496315        0.07300675400087
N           -1.36869335409268        0.99413981491887       -0.17435360795080
C           -2.16941943634759        2.18722715775968        0.08809129203256
C           -2.09133521280775       -0.25114236248394       -0.64806985587676
O           -3.20549007868050       -0.32072878413266       -1.11926039933834
N           -1.03051011810764       -1.31355624417348       -0.16672055919876
C           -1.42742755239389       -2.68193559458070        0.11615269354267
H            3.76379099717554        1.23818228357448        1.07600554685194
H            4.04089879787054        1.00191519838541       -0.65443577962262
H            2.77686606561345        2.13007384480479       -0.09802173587182
H            3.58352234366564       -1.59326224238210       -0.02302738220565
H           -1.54222170368907        3.08216236550392        0.19293295023322
H           -2.84333567180229        2.32828808951138       -0.74307997393358
H           -2.71766884712114        2.06373266973258        1.02476526334847
H           -0.72303052081801       -3.19896856285228        0.78356250916924
H           -1.49568285705091       -3.25271632357977       -0.81111546254281
H           -2.39315723304748       -2.66237979907550        0.61655261995716
H            1.44041303219582       -2.92840320396419        0.03717463506306
25
 energy: 35.787452717242 xtb: 6.6.1 (8d0f1dd)
C            3.26678333014433        1.18009428708577        0.10049485596194
N            2.28453511124369        0.13067170545471        0.07271414379939
C            2.59448398828977       -1.21057137649537        0.13637490049364
N            1.40980418763687       -1.92231485185137        0.01165386380706
C            0.34098104176631       -1.06201120996198       -0.04481388534388
C            0.89299922782641        0.21002184378552        0.00769949867198
C            0.05277439021864        1.34008092053895       -0.02522999566141
O            0.47293249915015        2.50005987954740        0.07313144122695
N           -1.36855278415249        0.99445161899609       -0.17456334283745
C           -2.16928781141878        2.18738438271263        0.08818420557107
C           -2.09173732958351       -0.25133782564315       -0.64788224134472
O           -3.20551967299257       -0.32079020291675       -1.11955171298508
N           -1.03059265732109       -1.31339466065280       -0.16639594960187
C           -1.42726173893673       -2.68203954108709        0.11601140397130
H            3.76387713673882        1.23808816219617        1.07595665044059
H            4.04078512930830        1.00206872761545       -0.65454450404911
H            2.77683894736401        2.13014889074083       -0.09789933155089
H            3.58323008693373       -1.59306144555941       -0.02527264157111
H           -1.54230155884370        3.08240087223604        0.19280915519697
H           -2.84334388333044        2.32820759274136       -0.74286713477480
H           -2.71737662165720        2.06378488903453        1.02488992997434
H           -0.72383841495533       -3.19874063598294        0.78428000264651
H           -1.49487864197354       -3.25302398193111       -0.81146311140068
H           -2.39360846411418       -2.66272653249236        0.61576537641453
H            1.44048917059488       -2.92842290593911        0.03755231909208
