25
 energy: -42.411592344276 xtb: 6.6.1 (8d0f1dd)
C            3.25430339342351        1.16571636352024        0.07760701112038
N            2.26790233421094        0.10594413834684        0.04296590899545
C            2.61359581427829       -1.16417594038264        0.02618213820430
N            1.52646191794010       -1.94515833540840        0.02251775450744
C            0.35969356885538       -1.11902258126697        0.08267780213744
C            0.90772767649284        0.19993756194519        0.06609579171353
C            0.07845108396175        1.41786112398874        0.06853406337503
O            0.63851271070208        2.51715907971204        0.12200245434536
N           -1.23247329019487        1.14570080090758       -0.02760711397772
C           -2.10663677814691        2.24787851382187        0.14717318704636
C           -2.63223546115838       -0.41266500645114       -1.40589517733216
O           -3.72029338604436       -0.09037356978505       -1.38987726799396
N           -0.86578179047324       -1.42711719150007        0.18219406597683
C           -1.36766122734927       -2.74476917528245        0.19836745754595
H            3.74056131696477        1.21602359945636        1.05806740731721
H            4.02679267910656        0.98339713528990       -0.67069781685923
H            2.77748734691092        2.12814359334547       -0.11011487836098
H            3.62377787963903       -1.52109508683517       -0.00199776514697
H           -1.53949945106966        3.16854314619707        0.23917129255341
H           -2.79554978151297        2.34159377095281       -0.70027016979448
H           -2.72963415800982        2.09576667696739        1.03084607226319
H           -0.67409275409421       -3.36030985780369        0.77495115565936
H           -1.48689205019726       -3.20006249382671       -0.78083501928840
H           -2.35383670156261       -2.70519903973704        0.65369773479332
H            1.59754843695953       -2.94701930552678        0.04863415098438
