25
 energy: 0.000000000000 xtb: 6.6.1 (8d0f1dd)
C            3.23720163006194        1.16630919979326        0.08434469647475
N            2.29877817382611        0.07527477071623        0.03981603040599
C            2.58028210190900       -1.21425402444508        0.03006176031096
N            1.43813958087363       -1.93419271955128        0.00098261760884
C            0.39035688448383       -1.05887472636071       -0.00790371836672
C            0.93510056364412        0.21347819449412        0.01709077491437
C            0.09450143893243        1.40504303904423       -0.00410947031874
O            0.49712751527797        2.54126714362870       -0.00342325688240
N           -1.25076640035757        1.06271879480407       -0.03085478223738
C           -2.21907211982101        2.15522099834493       -0.05001256985998
C           -1.81739487048744       -0.20012725993278       -0.04692818574614
O           -2.99983886758376       -0.37846417018721       -0.07008878229737
N           -0.92618586207120       -1.30210215599479       -0.03682761578324
C           -1.46982264913417       -2.64643102187190       -0.06029820460571
H            3.71247264356769        1.21471455160235        1.06488849150277
H            4.00791497605742        1.03430808813993       -0.67357694370751
H            2.69910007168542        2.09770118228144       -0.09130154882931
H            3.56654120610678       -1.63682992603973        0.04233140067262
H           -1.67107961066214        3.09322851271934       -0.02552706933167
H           -2.82428953597071        2.09428624779827       -0.95318082946668
H           -2.87644029173232        2.07745725625962        0.81450067533302
H           -1.17061996399332       -3.19584890659852        0.83242232437030
H           -1.14560257411436       -3.17511610292205       -0.95688275822323
H           -2.55549792440841       -2.55659984320617       -0.07459039797972
H            1.38130855184625       -2.94313852034425       -0.01389874181052
25
 energy: -3.779685461475 xtb: 6.6.1 (8d0f1dd)
C            3.24845277164548        1.17816901369674        0.08106607029905
N            2.30713653525819        0.09875855736566        0.03930425200824
C            2.60155186389688       -1.22661809178106        0.03090248817072
N            1.43002487643883       -1.93697573991076        0.01154411854381
C            0.38806836483027       -1.05735890001798       -0.00067349932508
C            0.92688135804814        0.21959053756962        0.02105747912532
C            0.09643547526726        1.38807949821745        0.00659817368031
O            0.50372759945411        2.55163728212307        0.01625157554621
N           -1.27347805483579        1.04257524533730       -0.04515007559177
C           -2.20970350802580        2.15891651077206       -0.02782036531060
C           -1.87227076160830       -0.21090195481782       -0.14438138155116
O           -3.07559265083858       -0.37594606201454       -0.22044676730801
N           -0.95128943963981       -1.30338432378206       -0.04255635045285
C           -1.46460488904158       -2.65352262105530       -0.03339515821054
H            3.73097773391331        1.22634459872227        1.06108155193372
H            4.01638690279075        1.03776365361864       -0.68181408711626
H            2.70800864442349        2.10549000702143       -0.09718056695613
H            3.58363744779745       -1.64654216526707        0.03310129188172
H           -1.64674268153099        3.09101086108771        0.01171134624958
H           -2.81553749752965        2.12076798703516       -0.93040201181200
H           -2.86009678497047        2.07704325015954        0.84213011942700
H           -1.12438864352022       -3.20433863769146        0.84727751782144
H           -1.16166326750419       -3.18065650809947       -0.93864999134387
H           -2.54859241440303       -2.56955047180561       -0.00652389655772
H            1.37488568762047       -2.94132292431152       -0.00599793700384
25
 energy: 4.605433805378 xtb: 6.6.1 (8d0f1dd)
C            3.26317281719366        1.18848274445163        0.07472116707627
N            2.31185574605730        0.12533553931884        0.03880266895795
C            2.61921205716678       -1.23673216767361        0.03397110521517
N            1.41614588759908       -1.93301797799179        0.02678675795267
C            0.37987728170243       -1.05434480800481        0.01512767548840
C            0.91359923834655        0.22621952614604        0.03097308380174
C            0.09654549632136        1.35958028416386        0.02288937905897
O            0.50024171901429        2.54542367873696        0.04695413778944
N           -1.30832813326184        1.01392405908427       -0.06427905802352
C           -2.19416535980491        2.16880830832735        0.00926348998154
C           -1.95195596734912       -0.22768200076136       -0.30008732238229
O           -3.16467258836755       -0.37052149672926       -0.50702108216664
N           -0.98704804889338       -1.30148084151848       -0.04777971611214
C           -1.45317756860761       -2.66413318538072        0.01220218020419
H            3.75896169058484        1.24143208789596        1.05140320264963
H            4.02867787364733        1.03968103486435       -0.69336721410342
H            2.72747631325485        2.11668018259886       -0.10605167843115
H            3.59843231296452       -1.64917902582414        0.01897172116079
H           -1.60733275777786        3.08964747769916        0.07319320243898
H           -2.80876662478808        2.17398458684412       -0.88709662598642
H           -2.82876312023448        2.08157123988114        0.89162542182828
H           -1.03283828469166       -3.21541256900301        0.86758485925988
H           -1.20384852257776       -3.19430102864187       -0.91105285166219
H           -2.53590648341241       -2.59995625108311        0.12359475845459
H            1.37481969384997       -2.93498079522833        0.00570463369657
25
 energy: 18.584065146628 xtb: 6.6.1 (8d0f1dd)
C            3.27320230319688        1.19163682594385        0.07379189318540
N            2.31000328380573        0.13855091491240        0.04249974372933
C            2.62127421361241       -1.23982822960345        0.04344007295300
N            1.40568391473340       -1.92828100248361        0.03543597889243
C            0.36810054384696       -1.05397920414475        0.01298631090383
C            0.90364644080326        0.22729699922132        0.03409208909531
C            0.08708385298734        1.34400614928249        0.02307596458427
O            0.48485737173768        2.53711628247691        0.07201141087730
N           -1.34141780154878        0.99444921426744       -0.09643033046384
C           -2.18335769475476        2.18036035492936        0.04494539055675
C           -2.01155223452077       -0.23976889625526       -0.45734441595055
O           -3.21190892155009       -0.36579593940176       -0.76255909062994
N           -1.01569621917922       -1.29848385868140       -0.07223713369475
C           -1.44205361959648       -2.67411007412502        0.05485431496765
H            3.77848164657533        1.25004538148244        1.04709718573903
H            4.03866427320164        1.03546226938367       -0.69513376125738
H            2.75019926494446        2.12670657452362       -0.11049287778062
H            3.60304051929574       -1.64446910777746        0.01445255669640
H           -1.57021827706620        3.08598407203045        0.13457093953675
H           -2.81174460484616        2.23916210767813       -0.84016150445032
H           -2.79501263712355        2.08474133631503        0.94411965534984
H           -0.93027218710314       -3.21327359731299        0.88111261079035
H           -1.26296547121070       -3.21611042390756       -0.88349721097708
H           -2.51958947510391       -2.64105382073668        0.26904728909707
H            1.38376618279926       -2.93133572584516        0.01735681439710
25
 energy: 26.400877003565 xtb: 6.6.1 (8d0f1dd)
C            3.27650297253801        1.18872015714051        0.08159575909215
N            2.30316861127496        0.13976734065347        0.05050157629653
C            2.61171472119977       -1.23559227133428        0.05800844007193
N            1.40102342636131       -1.92433657471377        0.03136006465102
C            0.35598927199427       -1.05580687640377       -0.00983813667080
C            0.89791121741201        0.22363878625857        0.02699965096540
C            0.07298555806169        1.34092820467096        0.00310745370839
O            0.46838979208369        2.52682735518125        0.07648229774334
N           -1.36623220047767        0.98589993225372       -0.13666380669405
C           -2.17866748812097        2.18714027830593        0.06966185155803
C           -2.04461939453481       -0.24482828154947       -0.56881953640650
O           -3.21688573454436       -0.35878481475551       -0.92161994148611
N           -1.03292578089162       -1.29621042281957       -0.11118115209480
C           -1.43290165605012       -2.67908909946786        0.08431365447451
H            3.78344549021246        1.24950389455439        1.05377204099255
H            4.04453867956076        1.02603894565935       -0.68378669706501
H            2.76895519567101        2.13250894394135       -0.10696513040665
H            3.59897237127617       -1.63299277708079        0.02078175981094
H           -1.54525779334634        3.07828899637121        0.17815296356221
H           -2.82491757839339        2.29789728709346       -0.79698517440962
H           -2.76270686828208        2.08060816505087        0.98760422359202
H           -0.84559087998703       -3.19689177152637        0.87901406391920
H           -1.32664245309778       -3.24146064110604       -0.85733839327698
H           -2.49351180860016       -2.67275231703652        0.39525983374686
H            1.39947699661652       -2.92999383716908        0.02361623047280
25
 energy: 26.341913657483 xtb: 6.6.1 (8d0f1dd)
C            3.27291315978340        1.18232136470566        0.09052003017430
N            2.29315439281039        0.13314960704118        0.05938819478599
C            2.59523589773175       -1.22504021674551        0.07227158161858
N            1.40102699917669       -1.92120297923587        0.01919356903128
C            0.34586194144836       -1.05862664701558       -0.03161443852672
C            0.89478416576854        0.21804069170564        0.01939857255768
C            0.06171833665067        1.34483455472571       -0.01729078698049
O            0.45888680660539        2.51481956728166        0.06522908563511
N           -1.37654081276608        0.98688322818718       -0.16234044061107
C           -2.17818830710284        2.18478443994916        0.08135793721391
C           -2.05076689827705       -0.24355797396997       -0.60347252021320
O           -3.19134289464390       -0.34939631866828       -1.02442638677084
N           -1.03693507196233       -1.29674514519645       -0.13837769358978
C           -1.42810485079633       -2.67677831745033        0.10062327554235
H            3.77667372208396        1.24178763885447        1.06321091615414
H            4.04317066201834        1.01416035112444       -0.67064002315439
H            2.77789916061669        2.13279487329177       -0.10105384716366
H            3.58825762884326       -1.61707136477961        0.02540224506476
H           -1.53587925447894        3.06632782712434        0.19549459974935
H           -2.84186736346088        2.33179332988065       -0.76181899444818
H           -2.73802237026571        2.06873203498460        1.01381499721233
H           -0.79666298160761       -3.17637950904233        0.86005278215665
H           -1.38103726845556       -3.25817123412076       -0.83127048959471
H           -2.45877626056777       -2.67934355918839        0.48005422208133
H            1.41675612878386       -2.92908764127138        0.02332750822265
25
 energy: 22.759507229175 xtb: 6.6.1 (8d0f1dd)
C            3.26592403499895        1.17724202620134        0.09848375548633
N            2.28491704397872        0.12723433944491        0.06542649095364
C            2.58242350671444       -1.21603228154945        0.08546081250912
N            1.40118795820540       -1.92012757792494        0.00649506060524
C            0.34064094993001       -1.05979472423087       -0.04920041702282
C            0.89165099608525        0.21539216887962        0.00831501426847
C            0.05835302247938        1.34800784231841       -0.03358338664728
O            0.45751916442593        2.50982849998002        0.06078123237442
N           -1.37302698724015        0.99190615631057       -0.17721191980815
C           -2.17948889517783        2.17860725593133        0.08253058915726
C           -2.03741226896142       -0.23930819062546       -0.60369849829683
O           -3.15223178499628       -0.34211907618629       -1.05720248381062
N           -1.03207530153263       -1.30007423909549       -0.15794210939816
C           -1.42976402667928       -2.67226392805932        0.10585176351899
H            3.76283672421169        1.23367676410075        1.07397748384891
H            4.03856452670014        1.00439981564083       -0.65839880249274
H            2.77531488546171        2.12864849104662       -0.09627675559415
H            3.57707379218217       -1.60705630016110        0.03040467062023
H           -1.53777140818508        3.05878039976328        0.19394775089702
H           -2.85522007695461        2.34015195760722       -0.74387154498569
H           -2.72750931840034        2.05443710359541        1.02000148558407
H           -0.75963288765446       -3.16305867615440        0.83305271979939
H           -1.42825732160737       -3.26139645815516       -0.81960472542707
H           -2.43559852716295       -2.67014384903046        0.53850244618425
H            1.42379686711497       -2.92790891747538        0.02079326382354
25
 energy: 21.247761200313 xtb: 6.6.1 (8d0f1dd)
C            3.26172565827368        1.17624559039903        0.09965099562579
N            2.28196695740069        0.12630335636902        0.06767928522672
C            2.57888206413762       -1.21314350254402        0.09537345131859
N            1.40113795671263       -1.92054524388811        0.00110390361124
C            0.34032090321882       -1.05959172243562       -0.05160425950296
C            0.88935761354478        0.21604572370074        0.00392238873365
C            0.05888003794331        1.34849026189265       -0.03258145588200
O            0.45785393432232        2.51154188355497        0.06588444149170
N           -1.36691654980906        0.99480268836218       -0.17838333974963
C           -2.18059753646286        2.17384243348231        0.08274672519340
C           -2.02460574399910       -0.23664268985127       -0.59665576810598
O           -3.12878891535480       -0.33936605334400       -1.10015909585169
N           -1.02668757527330       -1.30329808949862       -0.16469833627333
C           -1.43226164173099       -2.66937246515496        0.11027594513426
H            3.75516222259876        1.23155861374552        1.07681902297030
H            4.03495678900072        1.00030698323621       -0.65564901537780
H            2.77012389033223        2.12594467313494       -0.09690573087412
H            3.57245633310437       -1.60550168162043        0.02784630355381
H           -1.54069216521067        3.05608227049995        0.19129725962411
H           -2.86347692884158        2.33707871052781       -0.73652672428720
H           -2.72399132994833        2.04494780238594        1.02173508659728
H           -0.74246969891362       -3.16076539707437        0.81321059424534
H           -1.46355642643263       -3.26089478032484       -0.81176318348087
H           -2.42011272148770       -2.65772592643382        0.57512023631478
H            1.42354754081108       -2.92731483694919        0.01929516589193
25
 energy: 19.299755759537 xtb: 6.6.1 (8d0f1dd)
C            3.25909254407586        1.17674085681488        0.10145856856693
N            2.28120473903079        0.12660534349132        0.06895362795493
C            2.57901833614687       -1.21315888604340        0.10575833672402
N            1.40079809726388       -1.92130942829296       -0.00127986597777
C            0.34175263692919       -1.05880173139469       -0.05586359810556
C            0.88797639443244        0.21746314081090       -0.00246908687222
C            0.05933796429778        1.34765912666179       -0.03286119992176
O            0.45701678262878        2.51409071721816        0.07319748352728
N           -1.36115618167489        0.99704949336648       -0.18365848821475
C           -2.18222113982109        2.17137219506726        0.08166887602086
C           -2.01226390035889       -0.23458565674265       -0.60462629771463
O           -3.10682896632666       -0.33933335265906       -1.09835002425689
N           -1.02157341977333       -1.30619656784807       -0.17687559976294
C           -1.43560315731398       -2.66772923050916        0.11214186333767
H            3.74977941677358        1.23240609991324        1.08006855052435
H            4.03369088109005        0.99992764058200       -0.65204195802951
H            2.76518039693214        2.12449068493828       -0.09656730893025
H            3.57046901476170       -1.60799146817817        0.02554392768097
H           -1.54451441666286        3.05671951041738        0.18926079435104
H           -2.86871722938022        2.33148318402875       -0.73605488793547
H           -2.72396096199837        2.03739185613215        1.02064636150045
H           -0.73332211961776       -3.16191661268537        0.79627385188632
H           -1.49291074569318       -3.26000304065990       -0.80648762051906
H           -2.40933213696347       -2.64615226786174        0.59901347350785
H            1.41930183915797       -2.92719300439540        0.02018411680550
25
 energy: 19.164761694850 xtb: 6.6.1 (8d0f1dd)
C            3.26012592274138        1.17803655826542        0.10110417309566
N            2.28321515159805        0.12755967843113        0.06949500995342
C            2.58233132436491       -1.21569900303690        0.11096879112935
N            1.40088176868867       -1.92170931396989        0.00146303354717
C            0.34369178078897       -1.05842480581331       -0.05290506398604
C            0.88891869229466        0.21814957111511       -0.00061709529522
C            0.05931157833913        1.34643005195227       -0.02618590810536
O            0.45588043976284        2.51470485155324        0.07596232448642
N           -1.35997843368743        0.99684026829559       -0.18031407096010
C           -2.18319788459706        2.17122962963032        0.08025386219883
C           -2.00976052881194       -0.23427964658378       -0.60535071271708
O           -3.10561299918046       -0.34038571408239       -1.10004695362612
N           -1.02069545179377       -1.30661492062403       -0.17967115795038
C           -1.43784675498037       -2.66697072371552        0.11087092503206
H            3.75222278375341        1.23542682052000        1.07909653358054
H            4.03456010642637        1.00279941105251       -0.65300342069882
H            2.76443229122002        2.12523139533254       -0.09646528889314
H            3.57227534761181       -1.61163647497753        0.01875157203292
H           -1.54715995516259        3.05819838550437        0.18643223897806
H           -2.86727417546750        2.32353295945349       -0.74094383807463
H           -2.72638569093721        2.03836976435678        1.01836990813788
H           -0.72882839054866       -3.16706807896308        0.78680262270857
H           -1.50645804465773       -3.25503977239303       -0.80904113818599
H           -2.40819693644305       -2.64200095862151        0.60964298059695
H            1.41576272661389       -2.92765133050978        0.02236456916243
25
 energy: 18.819189006424 xtb: 6.6.1 (8d0f1dd)
C            3.26219070222629        1.18018112081748        0.10023291137186
N            2.28690963233710        0.12846605969832        0.07125554008567
C            2.58795210652075       -1.21931678106732        0.12132843043005
N            1.40214807009490       -1.92197318702534        0.00748875726952
C            0.34737510705352       -1.05826154773652       -0.04629272476404
C            0.89170637344475        0.21842408923608        0.00385161696589
C            0.05872803756254        1.34458186737934       -0.01669262704404
O            0.45335672794631        2.51456954787239        0.07962309416100
N           -1.35827188038477        0.99565925589878       -0.17477140036198
C           -2.18493474865997        2.17114800571067        0.07784045309412
C           -2.00541564911833       -0.23446710315860       -0.60407674538841
O           -3.10538114335149       -0.34262623585397       -1.09632570448706
N           -1.01851602581049       -1.30720994897884       -0.18288667089290
C           -1.44079533250924       -2.66595637484736        0.10864126542717
H            3.75786003556468        1.24063369065065        1.07647262705677
H            4.03554460641639        1.00791896020962       -0.65592502661561
H            2.76382936108719        2.12679831502850       -0.09625478289680
H            3.57534566466458       -1.61597320241489        0.00221613313429
H           -1.55158109918159        3.06033473400089        0.18171066822961
H           -2.86600172453455        2.31179788284693       -0.74981818604341
H           -2.73025924485253        2.04170996814820        1.01528926204561
H           -0.73498885695470       -3.17492444069955        0.77441294438037
H           -1.52319151835523       -3.24903032730116       -0.80906874023190
H           -2.40272882613052       -2.63507229566109        0.61241479612569
H            1.41133429286073       -2.92838345058120        0.02636800509589
25
 energy: 18.643643689183 xtb: 6.6.1 (8d0f1dd)
C            3.26252346041474        1.18047398482909        0.10227679035275
N            2.28754360834844        0.12838299166956        0.07368396006850
C            2.58906174943915       -1.21968459134389        0.12912060365562
N            1.40286283373634       -1.92179907532533        0.00848318390899
C            0.34819256760092       -1.05845494436644       -0.04729714750026
C            0.89284754028906        0.21791587837309        0.00443257566273
C            0.05837569432698        1.34406484605337       -0.01711237781177
O            0.45287056875953        2.51361178890548        0.08028359703097
N           -1.35799901931694        0.99471471890208       -0.17446290799667
C           -2.18516061188990        2.17090801514109        0.07597590942230
C           -2.00449137285940       -0.23479737723228       -0.60410755497572
O           -3.10574311997803       -0.34257348375868       -1.09364794853659
N           -1.01768479206872       -1.30722471317486       -0.18727144895024
C           -1.44163155157644       -2.66543163961945        0.10695077572650
H            3.75880411298436        1.24132948053102        1.07813122732038
H            4.03569515303765        1.00858297208988       -0.65440193492902
H            2.76402056786368        2.12709085559880       -0.09436184230582
H            3.57519797014057       -1.61515979223055       -0.00557447660696
H           -1.55269690362446        3.06053419500645        0.17837762813565
H           -2.86600875668288        2.30894472442520       -0.75296104052419
H           -2.73071448133884        2.04329127887177        1.01359206919431
H           -0.72536629660490       -3.17729892368734        0.76509579514718
H           -1.53947789995050       -3.24651502891261       -0.81335736444318
H           -2.40014322557946       -2.63343219290652        0.62761304616633
H            1.41133687246540       -2.92844536566697        0.02757277893556
25
 energy: 18.595868506051 xtb: 6.6.1 (8d0f1dd)
C            3.26210355392799        1.18009064692793        0.10369549816805
N            2.28681299903144        0.12799555576529        0.07563464036759
C            2.58844046288905       -1.21899156458586        0.13596091936618
N            1.40322727980507       -1.92162802818105        0.00850059108218
C            0.34795026508783       -1.05879004879410       -0.04893168351959
C            0.89322747371584        0.21722769752515        0.00424150615978
C            0.05822146625265        1.34432142680508       -0.01983485851541
O            0.45325409297631        2.51257480413900        0.08021183879999
N           -1.35811047612109        0.99406558489589       -0.17479522461490
C           -2.18470679775006        2.17091458010094        0.07498059859612
C           -2.00481306996897       -0.23532272441554       -0.60399913210209
O           -3.10776250301813       -0.34211300880482       -1.08970289274671
N           -1.01729090276413       -1.30708379991298       -0.18894497962830
C           -1.44142444756740       -2.66524458789049        0.10633360410976
H            3.75855131966967        1.24040801471122        1.07931386837359
H            4.03497131691740        1.00742964206576       -0.65330604735560
H            2.76436565603217        2.12694232928363       -0.09323614378670
H            3.57359944442246       -1.61235394340835       -0.01268722974092
H           -1.55222093049088        3.06028948338923        0.17672252449648
H           -2.86562750584490        2.30913435384453       -0.75359588657432
H           -2.73035185771013        2.04414919665961        1.01267444154372
H           -0.72220238238274       -3.17757319853033        0.76133019466645
H           -1.54358811874878       -3.24518718478182       -0.81285801368695
H           -2.39711151309163       -2.63389565239328        0.63155079265183
H            1.41269984266733       -2.92833097224261        0.02777497003718
25
 energy: 18.528785704656 xtb: 6.6.1 (8d0f1dd)
C            3.26110279578587        1.17954720110161        0.10654809787552
N            2.28516701570538        0.12771440207539        0.07984539055655
C            2.58780711544789       -1.21780510902133        0.15565721135191
N            1.40397104339395       -1.92150450509654        0.00899538707599
C            0.34806484432365       -1.05925196513463       -0.05287283730384
C            0.89398170684445        0.21613357228745        0.00298768352195
C            0.05826370217233        1.34493042650878       -0.02471742382702
O            0.45423166303355        2.51094889453839        0.07988483945596
N           -1.35781494073557        0.99277394910173       -0.17529635388549
C           -2.18369113598883        2.17076154463776        0.07263257796962
C           -2.00505419083821       -0.23688262443781       -0.60442200468896
O           -3.11289191515984       -0.34194536134936       -1.08054567847938
N           -1.01555136377927       -1.30705006353057       -0.19245902467131
C           -1.44014079522529       -2.66510598986750        0.10510423962476
H            3.75771047019097        1.23890678683784        1.08177870284558
H            4.03344256453192        1.00484119321851       -0.65080492080255
H            2.76487104976242        2.12671239977135       -0.09122069597078
H            3.57009273478017       -1.60605280211077       -0.03253207531615
H           -1.55105219639391        3.05984281899109        0.17408764023599
H           -2.86475605153955        2.30978661351100       -0.75551530241268
H           -2.72983280145788        2.04500367166947        1.01025912174266
H           -0.71840852426300       -3.17865933469069        0.75294012889299
H           -1.55424116403431       -3.24410969679024       -0.81198706678143
H           -2.38841592008822       -2.63240129244677        0.63955081019113
H            1.41535896146764       -2.92810612760215        0.02913544894636
25
 energy: 18.490472459268 xtb: 6.6.1 (8d0f1dd)
C            3.26075524394635        1.17926635840277        0.10689583563043
N            2.28455710532375        0.12771837806642        0.08012344466101
C            2.58773880670219       -1.21790736002382        0.16205100262427
N            1.40355980240233       -1.92176237077813        0.00916212160343
C            0.34803590455040       -1.05916936551120       -0.05456327128107
C            0.89386273732396        0.21607223462957        0.00130220075933
C            0.05845568333845        1.34516355094900       -0.02573483980046
O            0.45453408290982        2.51104206443660        0.07878096498599
N           -1.35748052847952        0.99306620355669       -0.17592476973167
C           -2.18347074846775        2.17072259537849        0.07241778077117
C           -2.00515344215334       -0.23715921600791       -0.60428395903572
O           -3.11423428835299       -0.34210371517048       -1.07803222782796
N           -1.01519861588164       -1.30712088868098       -0.19265763945821
C           -1.43983063555831       -2.66508864366078        0.10492435557192
H            3.75697964336575        1.23853176328312        1.08230149079388
H            4.03329829180881        1.00388082199103       -0.65000921591283
H            2.76500296757792        2.12651832773262       -0.09126964677342
H            3.56831124578304       -1.60476723177575       -0.03756901975656
H           -1.55067996279654        3.05974722422431        0.17469826464123
H           -2.86444498665022        2.31081463540020       -0.75544203219302
H           -2.72986710642889        2.04423298435744        1.00978267571267
H           -0.71711249420512       -3.17900890154098        0.75145245910296
H           -1.55366075681002       -3.24352767249118       -0.81147586864070
H           -2.38700303904214       -2.63197746403685        0.63968521931877
H            1.41525975773001       -2.92815571055820        0.03041857038190
25
 energy: 18.433365845930 xtb: 6.6.1 (8d0f1dd)
C            3.26037809323105        1.17889470380424        0.10721995548446
N            2.28382103906819        0.12784824616736        0.07994213492887
C            2.58807226048949       -1.21837361151326        0.17287162403673
N            1.40257225668038       -1.92221104878781        0.01024454372974
C            0.34824920363287       -1.05873292567295       -0.05750173719306
C            0.89378403742002        0.21624126951716       -0.00243645290807
C            0.05881331884055        1.34550922667682       -0.02722592009928
O            0.45481252709034        2.51157184185718        0.07625045730329
N           -1.35674841486721        0.99425195104827       -0.17796341288954
C           -2.18324444460033        2.17057175230633        0.07282517514914
C           -2.00535261033587       -0.23747629440603       -0.60437471468868
O           -3.11580091988646       -0.34282121499276       -1.07546370923928
N           -1.01459487032734       -1.30713535599964       -0.19268370056947
C           -1.43892185053823       -2.66513693557533        0.10469036663846
H            3.75568008633013        1.23825670200966        1.08313049608492
H            4.03353908251611        1.00255580052217       -0.64862585962688
H            2.76535092344630        2.12628409931583       -0.09171405721915
H            3.56532018509431       -1.60333959709715       -0.04655944812808
H           -1.55038339873336        3.05952843492703        0.17731751861593
H           -2.86384373851721        2.31324450252082       -0.75442466276311
H           -2.73009913255297        2.04174501098753        1.00954228419006
H           -0.71666467471351       -3.17851738229710        0.75109520782245
H           -1.55099457021822       -3.24437749776859       -0.81173614124220
H           -2.38602175048493       -2.63114694132453        0.63874235287883
H            1.41449202987222       -2.92820613405322        0.03387159585129
25
 energy: 18.428278027316 xtb: 6.6.1 (8d0f1dd)
C            3.26039928307678        1.17877271091380        0.10706175093851
N            2.28378337997945        0.12781665771623        0.07949325857551
C            2.58838166852730       -1.21879004269652        0.17620963717792
N            1.40186538904845       -1.92234751664956        0.01173054212035
C            0.34827822046783       -1.05846416542040       -0.05793188633295
C            0.89391334529354        0.21634182359354       -0.00403418547622
C            0.05880404226903        1.34547953971138       -0.02778995250967
O            0.45467167996132        2.51173750535534        0.07500136070215
N           -1.35642813953850        0.99519591936936       -0.17952262471425
C           -2.18320917858372        2.17055651167208        0.07354215055960
C           -2.00567713736150       -0.23739558674807       -0.60441214564638
O           -3.11584364255087       -0.34319223603496       -1.07595188819804
N           -1.01481608769247       -1.30693596012956       -0.19206873922191
C           -1.43872312387500       -2.66509823678532        0.10475396018767
H            3.75539882785903        1.23835883128891        1.08317099857473
H            4.03389808170789        1.00235662877258       -0.64838367050627
H            2.76557306908642        2.12624394362006       -0.09214690567994
H            3.56418147321935       -1.60355971989752       -0.05062077035566
H           -1.55043095837495        3.05944549980542        0.17934883565932
H           -2.86377360824509        2.31474801484773       -0.75340366790051
H           -2.73009328471369        2.04019557000535        1.01001080615692
H           -0.71714965591689       -3.17750868103921        0.75326113959181
H           -1.54664143056130       -3.24497844642671       -0.81215820185714
H           -2.38772891321979       -2.63170717321562        0.63568209941183
H            1.41358136807370       -2.92824278945631        0.03619199488999
25
 energy: 18.405687191113 xtb: 6.6.1 (8d0f1dd)
C            3.26047579350436        1.17881856291584        0.10688133877090
N            2.28398623797724        0.12771013967850        0.07934959983015
C            2.58880778675180       -1.21908100859013        0.17895206188562
N            1.40138356827248       -1.92229393850514        0.01384012332796
C            0.34835762334435       -1.05827033946435       -0.05739828623816
C            0.89436639151767        0.21632074714520       -0.00482729039064
C            0.05854996329016        1.34529071118475       -0.02825967475506
O            0.45437408814962        2.51151494348394        0.07485988746021
N           -1.35601290421353        0.99605841152317       -0.18099256764198
C           -2.18312634258552        2.17052489768602        0.07427427959896
C           -2.00575054911426       -0.23731167709648       -0.60457408917667
O           -3.11498113531084       -0.34350961143630       -1.07771706553416
N           -1.01511346346533       -1.30657102279175       -0.19162324506680
C           -1.43861698215372       -2.66497160433942        0.10474338646469
H            3.75557047763550        1.23863358602944        1.08294256815202
H            4.03410203304566        1.00258296238939       -0.64857544748143
H            2.76565051107311        2.12631703938371       -0.09246274868587
H            3.56327428531507       -1.60394630161815       -0.05569113935828
H           -1.55070497091151        3.05945357485081        0.18089043165019
H           -2.86384462441811        2.31548800828357       -0.75242849230776
H           -2.72983972501569        2.03888854390731        1.01063789592550
H           -0.71871720063498       -3.17599161465282        0.75634382786013
H           -1.54246474926609       -3.24589279227597       -0.81287517996918
H           -2.39022145867020       -2.63249465143379        0.63232257546752
H            1.41271001381911       -2.92823896408536        0.03842114635952
25
 energy: 18.368547928509 xtb: 6.6.1 (8d0f1dd)
C            3.26044327412210        1.17899655996546        0.10662458447502
N            2.28419997038225        0.12757569257097        0.07944130522216
C            2.58917446751942       -1.21914517393090        0.18046310953442
N            1.40133837436782       -1.92214002995410        0.01544231849046
C            0.34839050942100       -1.05828662055550       -0.05616329459459
C            0.89488909492613        0.21611243302131       -0.00444068533258
C            0.05812508870618        1.34500626930144       -0.02821620861313
O            0.45416211024014        2.51085219429679        0.07636300371890
N           -1.35554182782197        0.99632233805616       -0.18128578421492
C           -2.18296212784101        2.17055382341841        0.07456230211865
C           -2.00537026520586       -0.23741034852006       -0.60475316515939
O           -3.11352522874972       -0.34351634932001       -1.07980356436211
N           -1.01535005687408       -1.30617167532629       -0.19137751408186
C           -1.43874769901331       -2.66478192677364        0.10476552962969
H            3.75612770107700        1.23883253933516        1.08232643691667
H            4.03383304329964        1.00308245814790       -0.64933995953016
H            2.76541961828453        2.12645603641898       -0.09254385594121
H            3.56249313335302       -1.60404911569451       -0.05951481332889
H           -1.55103309045519        3.05971947223830        0.18082744996153
H           -2.86416454124779        2.31477470500779       -0.75209090595968
H           -2.72923964289706        2.03876218573002        1.01116669871660
H           -0.72030829394987       -3.17503476652710        0.75911388396721
H           -1.53990651901707       -3.24613475188131       -0.81323460234117
H           -2.39245485568952       -2.63310188674846        0.62930837052450
H            1.41222243099959       -2.92824546010480        0.03939325633123
