  25
        -42.22230335
 C          3.4499933432        0.9400882243        0.0045893397
 N          2.4113501055       -0.0560769026        0.0021033752
 C          2.5642102549       -1.3743976096        0.0050383236
 N          1.3512957867       -1.9741999749        0.0021123427
 C          0.4019503401       -0.9942137470       -0.0024457699
 C          1.0684470842        0.2175796230       -0.0028327249
 C          0.3172339740        1.4884701330       -0.0055001721
 O          0.8267500660        2.5799070826       -0.0081050849
 N         -1.0347462417        1.2641616061       -0.0024985971
 C         -3.7364958626        1.1678178971        0.0048752793
 C         -1.6200056882        0.1215439894        0.0007957004
 O         -2.9198839653       -0.0069075146        0.0116641434
 N         -0.9481205948       -1.1029174456       -0.0045982594
 C         -1.6153288430       -2.3896014721       -0.0072900026
 H          4.0658094542        0.8428953440        0.8986051844
 H          4.0846140291        0.8282200077       -0.8744397167
 H          2.9817294452        1.9244174597       -0.0078210992
 H          3.5020191747       -1.8927479594        0.0094316020
 H         -3.1213240137        2.0639752547        0.0885686516
 H         -4.2974398744        1.1812854678       -0.9257405225
 H         -4.4258268013        1.0915501301        0.8488841836
 H         -1.3664966796       -2.9473876796        0.8969445011
 H         -1.3252761937       -2.9632248182       -0.8889067554
 H         -2.6885916093       -2.2233198265       -0.0333831894
 H          1.1929764186       -2.9715239308        0.0044082248
