  25
        -42.00700117
 C          2.9792573707        1.7340258959       -0.3533978934
 N          2.1291377451        0.6895025203       -0.7677659705
 C          2.3312040697       -2.9079614237       -0.2336102817
 N          1.2763401243       -2.3992657136        0.2760829050
 C          0.6096891200       -1.1478898298        0.0018290822
 C          1.3427269799       -0.0846143530       -0.2908812129
 C         -0.8599651090        2.0776805234        0.7431171792
 O         -0.7311513717        2.7187491776        1.6918874364
 N         -0.9350669853        1.2267508629       -0.1816303444
 C         -0.9982943406        1.5943519682       -1.6036228988
 C         -1.6263856028       -0.1219423788        0.0940811928
 O         -2.8123456389       -0.1056094191        0.2165412066
 N         -0.8011840263       -1.1719383191        0.1170955108
 C         -1.4547451273       -2.4740269183        0.2418499427
 H          2.7870011595        2.0769123153        0.6655765529
 H          4.0064159995        1.3702436547       -0.4237192609
 H          2.8745098808        2.5566036691       -1.0615181341
 H          2.8447208208       -2.3491385466       -1.0126876805
 H         -0.5849722623        2.5893302627       -1.7479329349
 H         -0.4258060428        0.8689831212       -2.1759655816
 H         -2.0374379652        1.5815581407       -1.9312746243
 H         -1.3955837700       -2.8515602298        1.2643734863
 H         -1.0104837653       -3.1848929726       -0.4534596052
 H         -2.5078402188       -2.3509876663       -0.0066374301
 H          0.8135665275       -2.9356562089        1.0095985411
