25
 energy: -42.246493265279 gnorm: 0.008397482437 xtb: 6.6.1 (8d0f1dd)
C            3.21972796804130        1.14131966179420        0.03914814689502
N            2.27289936232026        0.05755257304334        0.08707936989174
C            2.54867485533764       -1.23699118479379        0.14852891304799
N            1.40009406815951       -1.95218770121894        0.13392097118369
C            0.35782925647711       -1.07434148598855        0.06407339287365
C            0.90812775001810        0.19744929462403        0.03674993141191
C            0.08028438063538        1.39042930669894       -0.03587212715919
O            0.49016123092871        2.52531910437030       -0.09164006708716
N           -1.27095196707732        1.06232560765711       -0.03432110624340
C           -2.22703369010249        2.16127047766947       -0.10255783325146
C           -1.84352322702899       -0.19891732129715       -0.00762004608798
O           -3.02868336664055       -0.36735242768319       -0.02009932821791
N           -0.96424251326190       -1.30700096043870        0.04063193395564
C           -1.54290798728957       -2.62690114529283       -0.06055873595171
H            3.85052484082075        1.13734495126927        0.92816404253758
H            3.85449247242778        1.04551223425332       -0.84233574535454
H            2.67125122895361        2.08162318062078       -0.01229967954756
H            3.53093279394958       -1.66370632857775        0.20071726196097
H           -1.66843229828623        3.09277304053635       -0.14894486100521
H           -2.85278123737522        2.04978340967615       -0.98751216612316
H           -2.86865625383207        2.14850059892261        0.77777766884594
H           -0.92482425202840       -3.36330078861942        0.45454517554179
H           -1.64768567431841       -2.90886547441435       -1.11194246653463
H           -2.52876180632508       -2.61360898337231        0.39599947541876
H            1.34391557960828       -2.95979109776756        0.17953949684109
