25
 energy: -42.159308213061 gnorm: 0.005643294449 xtb: 6.6.1 (8d0f1dd)
C            3.30372332779364        1.10163876425568        0.03831658821601
N            2.31508453499592        0.05801159452193       -0.00215540284008
C            2.54187766255008       -1.25291369376432        0.01404253397786
N            1.37007585496387       -1.92980664616726        0.00246668175232
C            0.35503375126714       -1.01265438738946       -0.02098845292342
C            0.94462746926743        0.25931002946309       -0.02282703780401
C            0.20536414895401        1.46409054200789       -0.01981026901681
O            0.60319183368897        2.60489848090514       -0.07024355428100
N           -1.24091965141030        1.20209961536704        0.07495223003300
C           -2.02835910750931        2.27780409143694        0.16905244932113
C           -1.74606208058819       -0.05496554636157       -0.00428679569992
O           -3.07543246183912       -0.22552768462900       -0.08563136075314
N           -0.97469455802372       -1.18671919988294       -0.04062765337998
C           -1.57454535125817       -2.50677785972917       -0.08186076558681
H            3.82395994933924        1.09485716418734        0.99720771012888
H            4.03364998699328        0.96548990321044       -0.75907706852472
H            2.80122287272086        2.05985387293562       -0.08650880919681
H            3.51043524799587       -1.71035505255398        0.02865025447492
H           -1.55135327567585        3.22918398526501        0.09565454813858
H           -3.47869115840042        0.61372979104663       -0.37152882301395
H           -3.05640583432664        2.21136513397016        0.45477860078117
H           -1.30470998691388       -3.07020780591535        0.81199216523131
H           -1.23915750481404       -3.04007410500821       -0.97179440992244
H           -2.65537620800794       -2.40011471703771       -0.11791130749820
H            1.27789205233722       -2.93397772853395       -0.00069043371378
