  25
        -42.09945641
 C          2.7456240956        1.1971846254        0.0939168133
 N          1.8001367331        0.0947793527        0.0088248670
 C          2.2996065404       -1.1260088507       -0.0326607294
 N          1.6353408071       -2.3191361668       -0.0723921426
 C          0.3474366839       -2.7017449324       -0.0273298022
 C          0.4372414143        0.3851603558        0.0052661469
 C         -0.1420077755        1.7319117956       -0.0139461940
 O          0.3668180077        2.8309769980       -0.0405195266
 N         -1.4947604552        1.5146045708       -0.0013065243
 C         -2.5382008935        2.4949786271       -0.0203408195
 C         -0.6314234454       -0.4927301934        0.0141486941
 O         -1.8025160015        0.1765102020        0.0132052270
 N         -0.6888961966       -1.8738912144        0.0236069258
 C         -2.0028960170       -2.5108683068        0.0430017812
 H          3.2350274874        1.1955982331        1.0687444687
 H          3.5020777838        1.1049255005       -0.6837619447
 H          2.2226888589        2.1445583753       -0.0297426352
 H          3.3781565664       -1.1953915643       -0.0297806822
 H         -2.0384490806        3.4619473597       -0.0646958250
 H         -3.1758613433        2.3607329955       -0.8958907353
 H         -3.1463944802        2.4300837073        0.8843126555
 H         -2.0031043950       -3.2956152927        0.7978612584
 H         -2.2073039134       -2.9650201866       -0.9283790149
 H         -2.7760176071       -1.7807610924        0.2696380619
 H          2.2614472640       -3.1170918810       -0.1207417793
