25
 energy: -42.105891873636 gnorm: 0.004211733827 xtb: 6.6.1 (8d0f1dd)
C            3.36598504624082        1.04692180304133        0.05644638520189
N            2.37457352110358        0.00568797252640        0.02691070663966
C            2.59835609977598       -1.30437805685787       -0.02046830049676
N            1.42004135173561       -1.97121893971339       -0.02529223687889
C            0.41499370090437       -1.05273977650002        0.01958015840310
C            1.00999517826838        0.20266250422741        0.05615142787643
C            0.25126706372398        1.41371192397463        0.08590380676000
O            0.66544976036048        2.55041542620706        0.10657376022643
N           -1.16663873798627        1.14410735633359        0.05713731226458
C           -1.99022104939367        2.20118430599065        0.04013249717279
C           -1.77515215391556       -0.14489469758892        0.03521284805251
O           -2.96856534808582       -0.27010184190877        0.02814037442159
N           -0.91944052833380       -1.24441065732744        0.01850862764062
C           -1.49180999404384       -2.57944339214700        0.00335172253975
H            3.81899402365578        1.11051108610406        1.04746879540461
H            4.14571083299718        0.84467899244797       -0.67533609511485
H            2.88423735183583        1.99775002988183       -0.16532727313051
H            3.56382733633526       -1.76740068736088       -0.05257716556348
H           -1.53987412085823        3.17819412208088        0.07431419163716
H           -4.80276386361944        2.10109658676545       -0.54880505224892
H           -3.06537901191551        2.05191612126337       -0.07662267593768
H           -1.18184121462807       -3.13360036598596        0.88929375626882
H           -1.19212053721333       -3.11103635303260       -0.89984308750453
H           -2.57546089416963       -2.47639047913390        0.01060283113598
H            1.31626770132563       -2.97498444168789       -0.06028569687017
