25
 energy: -42.433238050932 xtb: 6.6.1 (8d0f1dd)
C            3.25163978041469        1.11384795291045       -0.01362215080457
N            2.31455254054496        0.02524890746145       -0.06023044304220
C            2.61517812483739       -1.28933260365820       -0.02969792320416
N            1.47488002092526       -2.01820921777455        0.01022726915661
C            0.41900657760125       -1.16247324242518        0.00080976823691
C            0.92877485868975        0.13968657270442       -0.02050698211575
C            0.10318841063065        1.27361863687059        0.01509775219312
O            0.47588637336507        2.44943793032046       -0.00621054895542
N           -1.29251672502084        0.94816988599965        0.05659989492737
C           -2.09978179789446        2.01565193366945       -0.05805678819139
C           -1.82929621342761       -0.34872042234518        0.07309100881694
O           -3.02032706755130       -0.57899623376528        0.06978421635859
N           -0.90651799328033       -1.40825631746760        0.02611607575624
C           -1.38597742907857       -2.76695687282136       -0.02533312370507
H            3.74885241084806        1.15747852846433        0.96024957266314
H            4.01304102135482        0.97155430831892       -0.77874401727806
H            2.70987103913582        2.04302337540930       -0.19372976411443
H            3.60611183768452       -1.68012316510692        0.03641725747770
H           -3.34612754532107        4.41995568119970        0.43158844064777
H           -1.62033160664861        2.88666941799818       -0.52655509018104
H           -3.13047739096564        1.83430140135255       -0.35874802641003
H           -1.07395062919620       -3.29861663586103        0.87406473203219
H           -0.97776841682825       -3.26484127502523       -0.90688670679043
H           -2.47434981292647       -2.74260515218875       -0.07695184156469
H            1.48238147021149       -3.02704368273282        0.04456856728241
