25
 energy: 5.570754527573 xtb: 6.6.1 (8d0f1dd)
C            3.38116441924324        1.12048010567244        0.13511314869736
N            2.36035553257511        0.11939629456013        0.00129143691625
C            2.59470438738904       -1.26250067118462       -0.00745830331231
N            1.36806160313192       -1.87978644906384       -0.07608993311012
C            0.38965228669696       -0.95053078294176       -0.01795835029089
C            0.93422805623743        0.32642025949126        0.04205170265829
C            0.03339933048056        1.44328130994496        0.07694377347674
O            0.30618044709235        2.63289634319239        0.06132447041632
N           -1.47189543820653        1.09008393144713        0.02879519651622
C           -2.44615599972751        2.17445039120978       -0.17513407484202
C           -1.93093255809650       -0.17268952320797        0.17858695623676
O           -3.10035723799797       -0.47423743642239        0.20840011707148
N           -0.94594854935992       -1.20776898029272        0.06645539580211
C           -1.38246238931815       -2.59293337593828       -0.07873263176645
H            3.68059005487003        1.24712279860052        1.19798768561772
H            4.26403428802532        0.85310227720384       -0.46913082366407
H            3.00797408531617        2.07334283379269       -0.23611039316213
H            3.53302262256139       -1.79026848956762       -0.04312979879180
H           -1.83609865198139        3.07570805184574       -0.28152007491876
H           -3.08536731775414        2.02026750239151       -1.06238458800848
H           -3.10810781658729        2.29113315711825        0.68851853064481
H           -0.93023030952111       -3.23992119240503        0.68561533893544
H           -1.16657918742518       -2.99236538203398       -1.08324020248753
H           -2.46291168808930       -2.59979889632788        0.08901556950888
H            1.22972028980687       -2.88189168042679       -0.10903673164412
