25
 energy: -5.405863957912 xtb: 6.6.1 (8d0f1dd)
C            3.29268821636867        1.16223289980570        0.10376101047486
N            2.32059380981690        0.11427390465650        0.02613143387968
C            2.60030336774091       -1.24677960417488        0.02364244578368
N            1.39951155778902       -1.92353578072267       -0.01940018041512
C            0.39516624216486       -1.02698037370619       -0.01300062964394
C            0.91968747127923        0.25719846330824        0.01846441443166
C            0.07494585795307        1.39494337674497        0.03152089807537
O            0.44118349453325        2.57463004793926        0.01592932916554
N           -1.33462574414736        1.05746882186287        0.00776233695074
C           -2.29553895917323        2.15326541306793       -0.08807621578862
C           -1.85904140272077       -0.19427749369770        0.02997352925261
O           -3.05181985982181       -0.41142128226351        0.00280467537083
N           -0.94699818798969       -1.27061889176757       -0.00259716670039
C           -1.44366980442916       -2.62642681966346       -0.06700727875678
H            3.73807666188702        1.23549043407253        1.11183530330493
H            4.10099346952531        0.98960784595040       -0.61592902666986
H            2.80009608195561        2.09984673102511       -0.13681483832305
H            3.56888756738321       -1.69399043743833        0.02967960113432
H           -1.71178740588666        3.07226566989528       -0.10683486146176
H           -2.90900582187697        2.07617537839546       -0.99287234795344
H           -2.95983673747716        2.14655475247631        0.77730110219141
H           -1.08875117690229       -3.21024265210047        0.78652216102912
H           -1.14779148656831       -3.11730707196551       -1.00007550298446
H           -2.52956450661804       -2.56327553768650       -0.01951974509106
H            1.31961475253710       -2.92828951452918       -0.03141402973149
