25
 energy: 60.775845847008 xtb: 6.6.1 (8d0f1dd)
C            3.81385235322066        0.84237969511577        0.15273306107335
N            2.84555881987707       -0.20400930860330        0.08277767371605
C            3.09686862283022       -1.52798077710818       -0.04042708378382
N            1.91430891506236       -2.20248931392733       -0.09778392221955
C            0.82969273836417       -1.32602854905811       -0.03556638187577
C            1.45323664191531       -0.00182817721439        0.09021707630933
C            0.84123942180436        1.15624815259972        0.23541054350051
O            0.24506994950901        2.17186532552622        0.34325492925537
N           -3.03860201429016        1.68710328671255        0.00203421180091
C           -3.57352599591352        2.94849090166810       -0.32863741211232
C           -3.17365544647577        0.60092968131200        0.45297078812253
O           -3.12564639907548       -0.48525151589722        0.85701073110639
N           -0.41842066416404       -1.52816425503677       -0.07119041063882
C           -1.05369051324496       -2.80502503060755       -0.16839590770525
H            3.71219579573913        1.38737638184021        1.09569077030370
H            4.81523087869116        0.41852698066373        0.09233656221112
H            3.67438190118492        1.54892199211563       -0.67010663987510
H            4.06895772783341       -1.95875408064732       -0.09828984129151
H           -2.73907169640677        3.63916249507514       -0.45207328788380
H           -4.12875903919208        2.88938644993375       -1.26822568933987
H           -4.23590158247920        3.32031979918942        0.45727957604580
H           -0.48427165717422       -3.64213617841879        0.25706573572811
H           -1.27185615182448       -3.02532518423697       -1.21830386848207
H           -2.00580008983670       -2.71504322343872        0.35546186288365
H            1.85082178901820       -3.19964675881391       -0.19820916465417
