25
 energy: 0.000000000000 xtb: 6.6.1 (8d0f1dd)
C            3.23720163006194        1.16630919979326        0.08434469647475
N            2.29877817382611        0.07527477071623        0.03981603040599
C            2.58028210190900       -1.21425402444508        0.03006176031096
N            1.43813958087363       -1.93419271955128        0.00098261760884
C            0.39035688448383       -1.05887472636071       -0.00790371836672
C            0.93510056364412        0.21347819449412        0.01709077491437
C            0.09450143893243        1.40504303904423       -0.00410947031874
O            0.49712751527797        2.54126714362870       -0.00342325688240
N           -1.25076640035757        1.06271879480407       -0.03085478223738
C           -2.21907211982101        2.15522099834493       -0.05001256985998
C           -1.81739487048744       -0.20012725993278       -0.04692818574614
O           -2.99983886758376       -0.37846417018721       -0.07008878229737
N           -0.92618586207120       -1.30210215599479       -0.03682761578324
C           -1.46982264913417       -2.64643102187190       -0.06029820460571
H            3.71247264356769        1.21471455160235        1.06488849150277
H            4.00791497605742        1.03430808813993       -0.67357694370751
H            2.69910007168542        2.09770118228144       -0.09130154882931
H            3.56654120610678       -1.63682992603973        0.04233140067262
H           -1.67107961066214        3.09322851271934       -0.02552706933167
H           -2.82428953597071        2.09428624779827       -0.95318082946668
H           -2.87644029173232        2.07745725625962        0.81450067533302
H           -1.17061996399332       -3.19584890659852        0.83242232437030
H           -1.14560257411436       -3.17511610292205       -0.95688275822323
H           -2.55549792440841       -2.55659984320617       -0.07459039797972
H            1.38130855184625       -2.94313852034425       -0.01389874181052
25
 energy: -2.714990756594 xtb: 6.6.1 (8d0f1dd)
C            3.22991239546469        1.17614347404363        0.07141640889478
N            2.29996249764314        0.09006934486334        0.03094388410595
C            2.59739070012175       -1.23516862039240        0.03494225929444
N            1.42987395784533       -1.94888311632866        0.00968956763943
C            0.39419553253374       -1.06910047796423       -0.00885449076555
C            0.92314989921729        0.21121977096050        0.00697965231042
C            0.09731122872316        1.38495146624220       -0.01663999424932
O            0.49436346052519        2.54960796091127       -0.02510967195758
N           -1.26345098770983        1.05041353834309       -0.04082808424532
C           -2.18712173595700        2.18981385718981       -0.03294225812457
C           -1.82597671719756       -0.21070363745143       -0.06257924200098
O           -3.02148387863601       -0.40151594371756       -0.08002301536986
N           -0.93546301154994       -1.31588632766129       -0.03960498387536
C           -1.46078002853717       -2.66612503506965       -0.05068564809016
H            3.70142614766354        1.23507062410445        1.05557189836755
H            4.00239545558919        1.03495539051166       -0.68557219388135
H            2.68018371657893        2.09623194807587       -0.11835883458773
H            3.57778741143705       -1.65394522495235        0.05227414269893
H           -1.68719375671148        3.18633444954208        0.10807765473688
H           -2.72879271529434        2.22354101520578       -0.95097114252955
H           -2.95097956689011        2.02093685002043        0.72756261049929
H           -1.15443943511437       -3.20863621473696        0.84651117878132
H           -1.12394367418978       -3.20487289416317       -0.93926049027998
H           -2.54693653101880       -2.59227897057441       -0.06888326117654
H            1.37082430339962       -2.95314462483002        0.00337794995217
25
 energy: 5.314430276218 xtb: 6.6.1 (8d0f1dd)
C            3.21583060696755        1.18384606854345        0.04934674569071
N            2.29587079002337        0.10236506441480        0.01571479775912
C            2.61252035787281       -1.25890844730100        0.04407649312466
N            1.41794401531887       -1.96349718442871        0.02231195718127
C            0.39739460909828       -1.08432776771807       -0.00964432651789
C            0.90514233468139        0.20497470500427       -0.00927291572158
C            0.10053133175305        1.35286986081109       -0.03877630373458
O            0.48116213043907        2.54209196030173       -0.06214962712232
N           -1.28431301935773        1.03915083485996       -0.04909552810979
C           -2.14840282789546        2.23743224292993       -0.00237424872602
C           -1.83552650389174       -0.22203129584484       -0.07348893658981
O           -3.03847494798487       -0.43623987909202       -0.09412311039491
N           -0.94767640222380       -1.33160862753684       -0.04254803068803
C           -1.44547264584095       -2.69251391494582       -0.03621469437129
H            3.68264751261729        1.26536219515403        1.03689388982080
H            3.99375477522705        1.03461408912095       -0.70301641678417
H            2.65399994600247        2.09186940042068       -0.16110386275257
H            3.58720409670959       -1.66834745765664        0.06883726010258
H           -1.70814294423230        3.30132831004557        0.32642834433021
H           -2.56455434726041        2.44514464225448       -0.96872590158649
H           -3.06995256596579        1.92858109361273        0.58855796306170
H           -1.12773525983247       -3.22378048979706        0.86764843754724
H           -1.09268414148234       -3.24697412362754       -0.91298011607982
H           -2.53275756447475       -2.64770859894051       -0.05760974412836
H            1.36390533166808       -2.96466407841275        0.02834177083660
25
 energy: 18.775085880115 xtb: 6.6.1 (8d0f1dd)
C            3.19847661138311        1.18795311404901        0.02947854221274
N            2.28782858620874        0.10429752266587        0.00213223867902
C            2.61801815263791       -1.27686729514122        0.05140186985828
N            1.41049044382392       -1.97601970000293        0.03345464748705
C            0.39726303892932       -1.10174842803357       -0.01021485640860
C            0.88954595452057        0.19423836152881       -0.02508517775059
C            0.09554945964227        1.32846862697655       -0.06510218814011
O            0.46009852564597        2.52944728600256       -0.10471707209699
N           -1.30935383593557        1.03380992515509       -0.04601609061107
C           -2.12669977604132        2.27564489236692        0.03390784979440
C           -1.84662055804832       -0.23383811862171       -0.07143458351016
O           -3.04949162795878       -0.47384761640550       -0.10037512675210
N           -0.95680132765644       -1.34631509966152       -0.04464687152740
C           -1.42857574236914       -2.71849076065065       -0.02598338537127
H            3.65806719541678        1.29348344967343        1.02001206077732
H            3.98459769105756        1.03541702583379       -0.71487183040982
H            2.62863194796806        2.08740179848713       -0.20075030140348
H            3.59292878559621       -1.67613820144114        0.08284112173166
H           -1.73574834881396        3.38089765186161        0.51574647866717
H           -2.38615624593643        2.66682902314608       -0.96369754861164
H           -3.15936379648389        1.87814323640362        0.44014474455223
H           -1.10236999468868       -3.23824754861591        0.88421809437088
H           -1.05809408581288       -3.28301905182002       -0.89190303324934
H           -2.51674849335342       -2.70516266749790       -0.05341547171297
H            1.36674210820464       -2.97730882408660        0.05190978557208
25
 energy: 28.228195878010 xtb: 6.6.1 (8d0f1dd)
C            3.18092522585336        1.18750106082736        0.01724736154003
N            2.27789014809640        0.09611008630118       -0.00621794357790
C            2.61382641928649       -1.28725804354795        0.05627246063978
N            1.40731382173759       -1.98446294602813        0.04125636578611
C            0.39367152045388       -1.11764713431288       -0.01166349551680
C            0.87892758902639        0.18119095343578       -0.03782428823114
C            0.08558801590346        1.31496964726462       -0.09205174859086
O            0.43619165183399        2.51289816533522       -0.14573797368904
N           -1.33293828280760        1.03743491952996       -0.03467802310009
C           -2.12127282574493        2.30344519118198        0.06206880014062
C           -1.85725141431721       -0.24211849749734       -0.05971271113913
O           -3.05249144540529       -0.50610269190981       -0.10212055151712
N           -0.96243845096100       -1.35679463842803       -0.04784634083710
C           -1.41343592831889       -2.73952685552111       -0.02381065403163
H            3.63122905183820        1.31428569752496        1.01002963630401
H            3.97650726398488        1.03627347127670       -0.71709383856311
H            2.60730498853208        2.08188580795395       -0.22923499897115
H            3.59359056189718       -1.67732879601232        0.09404021573352
H           -1.78084470468321        3.43879676746237        0.63081187022007
H           -2.23223180462288        2.81220179947742       -0.89625960669806
H           -3.18349297474537        1.88504700263642        0.29895462428640
H           -1.08349424615764       -3.25006142972758        0.89132899395375
H           -1.02583568052987       -3.30761051048431       -0.88107384488244
H           -2.50148052310815       -2.75578125311129       -0.05923083302141
H            1.37645669089437       -2.98831917145539        0.06958041990993
25
 energy: 30.937929536805 xtb: 6.6.1 (8d0f1dd)
C            3.16943056149917        1.18391217546112        0.00789077866631
N            2.27002458832334        0.08203509089299       -0.01101846549921
C            2.60098373146959       -1.28284344157948        0.05239316509411
N            1.41118210381071       -1.98538145918742        0.04474346260616
C            0.38668117063686       -1.12612503966684       -0.01183815763187
C            0.87667606849757        0.17120035080021       -0.04104361374946
C            0.07151714721731        1.31661277569821       -0.09760643099031
O            0.41447267927270        2.50054212148007       -0.16937419308825
N           -1.34711436789351        1.04296940768150       -0.01206355445889
C           -2.14307882049574        2.30202636610518        0.07426466945542
C           -1.86685924220645       -0.24829643421361       -0.04787152737604
O           -3.05096032699779       -0.52413353599570       -0.09620365020377
N           -0.96248462145941       -1.36166687395840       -0.04798754301234
C           -1.40711815219765       -2.74906152868056       -0.02152777966179
H            3.61284629040337        1.32016729750452        1.00027537195032
H            3.96972119071571        1.03437352105618       -0.71991797653681
H            2.59729276068939        2.07700285625014       -0.24604955640610
H            3.58816931221004       -1.66790576469067        0.09259882333377
H           -1.83648019121331        3.44930975695233        0.71287420051432
H           -2.07328637994067        2.88307616600520       -0.82299318950703
H           -3.17972117933143        1.90775488791253        0.15191043658910
H           -1.07804528351139       -3.25279487663078        0.89652926604201
H           -1.01031006416041       -3.31214485077174       -0.87549385959414
H           -2.49270488790202       -2.77946468042565       -0.06248649436469
H            1.39138058050034       -2.99213568582759        0.07702971397644
25
 energy: 35.262687648979 xtb: 6.6.1 (8d0f1dd)
C            3.16525160250152        1.18135456244509       -0.00454056309252
N            2.26603216067071        0.07473603220865       -0.01899262852781
C            2.58990676435868       -1.26858534106393        0.04031231590130
N            1.41679805455887       -1.98146643985064        0.04242523799166
C            0.38015500917031       -1.12639060757369       -0.00707496537283
C            0.87706594280849        0.16891587990564       -0.03627591465043
C            0.06180935315027        1.32003522522309       -0.07482859489610
O            0.40433115569743        2.49649610625437       -0.17683684440369
N           -1.34727000513487        1.03816863140083        0.03341879817667
C           -2.16207833293993        2.28467603154380        0.07926835844604
C           -1.87360735988463       -0.25526192819895       -0.02444458967974
O           -3.05239452037661       -0.52941321414048       -0.07723450696342
N           -0.96055861576834       -1.36454626711123       -0.03833977391268
C           -1.40914657835888       -2.75088673264995       -0.01568925329206
H            3.60671506281918        1.31551127428790        0.98668326582535
H            3.96422870650306        1.02907523063629       -0.73169953526945
H            2.59513188972106        2.07405334585339       -0.25888836001564
H            3.58032100555954       -1.65300635668900        0.07769064335620
H           -1.89164491297575        3.43865427559351        0.79593874445728
H           -1.87883810688887        2.92655287864130       -0.78411043217134
H           -3.23720834510956        1.89776335379306       -0.02458941125919
H           -1.07999154529767       -3.25283609567603        0.90165662004142
H           -1.01188900291396       -3.30574659822865       -0.87213605800642
H           -2.49294922559312       -2.78015189686094       -0.05620542745546
H            1.40204451165935       -2.98867274757173        0.07152677092010
25
 energy: 35.595458478235 xtb: 6.6.1 (8d0f1dd)
C            3.16312161861452        1.17939000406535       -0.00389644248891
N            2.26252273118636        0.06972271589897       -0.02085314092812
C            2.57896621347634       -1.25184053145632        0.03839055011150
N            1.42009967960218       -1.97537505885619        0.04125946398708
C            0.37332518634794       -1.12117421782807       -0.00493621639761
C            0.87761834475393        0.17097218294645       -0.03578317242248
C            0.05537562522244        1.32446519747997       -0.06717330350601
O            0.40648995541438        2.49255860963664       -0.18505539680748
N           -1.34018108958641        1.03435908413696        0.05413250872191
C           -2.17230995337751        2.27364664679142        0.06352854392248
C           -1.87712368904959       -0.25720402860933       -0.01389258622044
O           -3.05307778590685       -0.52142535144106       -0.07113677654844
N           -0.95907734235039       -1.36404254522187       -0.03505520041452
C           -1.41214422935407       -2.75012728463560       -0.01956840567742
H            3.60107538917141        1.31029495564375        0.98883396831634
H            3.96341614304755        1.02554495750852       -0.72852883968415
H            2.59450152255485        2.07274742281206       -0.25827934065450
H            3.57003725401915       -1.64150572058641        0.07728553938044
H           -1.93472849028507        3.42354397482475        0.78177937377152
H           -1.83066515916603        2.88896982880987       -0.70146052094643
H           -3.18374787598014        1.91845012967711       -0.09406455287039
H           -1.08398619495528       -3.25353408791631        0.89611160379376
H           -1.01422986312473       -3.30048764325237       -0.87806015181842
H           -2.49653658928691       -2.77608578491612       -0.06152705910036
H            1.40347326694826       -2.98283485334046        0.06498345062789
25
 energy: 35.244118763271 xtb: 6.6.1 (8d0f1dd)
C            3.16278797788741        1.18308130473473       -0.00621896931890
N            2.26190620214420        0.07620002249225       -0.02421233574297
C            2.58357454677589       -1.25295354830584        0.03718846268837
N            1.41953330480601       -1.97704358099232        0.04088879142755
C            0.37504830817296       -1.12196574586048       -0.00219976769233
C            0.87340791630523        0.17268855223897       -0.03461917620064
C            0.05023134557933        1.31926194877094       -0.06319959965050
O            0.40090962312679        2.49378762522701       -0.18421104580122
N           -1.34571313576905        1.02589853803616        0.06562606933620
C           -2.17153721221392        2.27217023216366        0.06284825671840
C           -1.87911779579386       -0.26291353217607       -0.00873005942803
O           -3.05821071122814       -0.52859976907302       -0.06613253407862
N           -0.96041823517212       -1.36819332613812       -0.03090070138269
C           -1.41231832391814       -2.75359226524438       -0.01725330615293
H            3.60353949414152        1.31186912411959        0.98643454781939
H            3.96209020715010        1.02823137351756       -0.73235899066888
H            2.59367888518511        2.07647209492256       -0.25880122213399
H            3.57292867082831       -1.64343330948868        0.07273119166058
H           -1.95085367410775        3.42400966839425        0.79615465630562
H           -1.78147186068419        2.92025884164596       -0.70835796714189
H           -3.19076479279562        1.91650320883301       -0.12136630326481
H           -1.08342188526467       -3.25989207600314        0.89715523055816
H           -1.01724708614691       -3.30397009547249       -0.87780252614789
H           -2.49730593377509       -2.77524458736264       -0.05752979217420
H            1.40095883270289       -2.98360209680773        0.06190098661348
25
 energy: 35.365190036426 xtb: 6.6.1 (8d0f1dd)
C            3.16507397044858        1.18444265542844       -0.00673267331776
N            2.26335694641052        0.08065383514206       -0.02600513776616
C            2.58890213582244       -1.25714756149960        0.03703922363479
N            1.41830935579656       -1.97909992391978        0.04031752227093
C            0.37828881232611       -1.12121974753476       -0.00170892307700
C            0.87255570974983        0.17452338652317       -0.03382449190419
C            0.05119307529831        1.31779014621096       -0.06072742739547
O            0.40546493636282        2.49587785156616       -0.17334828851666
N           -1.34556281574864        1.02547118195238        0.07043422652370
C           -2.16624494844242        2.27762298297108        0.05925904171348
C           -1.87604747325140       -0.26105753288859       -0.01050478980500
O           -3.05834858633665       -0.52577239129683       -0.06546547450835
N           -0.96056351411742       -1.36779601448675       -0.02963833901934
C           -1.41276836931755       -2.75226237128054       -0.01594512682908
H            3.60888025801761        1.31123335813646        0.98565526841661
H            3.96291151869453        1.02983704140509       -0.73501281078303
H            2.59558366786048        2.07843389018706       -0.25688558709464
H            3.57604723528000       -1.64991971030365        0.06885924680936
H           -1.96433593499944        3.43027332923222        0.79394403260370
H           -1.77763689415217        2.90789942709878       -0.70714030060590
H           -3.20535406058093        1.91054419970544       -0.13079452924491
H           -1.08348235112634       -3.26131379783220        0.89742891360824
H           -1.02113559658176       -3.30445060343107       -0.87771107854717
H           -2.49853628089828       -2.77048239343540       -0.05439369454124
H            1.39566387142149       -2.98505263547839        0.05993509352232
25
 energy: 34.184361284986 xtb: 6.6.1 (8d0f1dd)
C            3.16587887311791        1.18609451180329       -0.00626512677562
N            2.26302720930643        0.08427827871250       -0.02662316905302
C            2.59136010776776       -1.25732968016903        0.03743865033283
N            1.41801195346404       -1.97937678424596        0.04000876466934
C            0.37951726785327       -1.12029868201859       -0.00232725546126
C            0.87101089341365        0.17593610069521       -0.03396173807290
C            0.04768737233986        1.31687038498204       -0.06032401863267
O            0.40542083974702        2.49701962922340       -0.16315340171229
N           -1.34786851092513        1.02231984150363        0.07008545964695
C           -2.16909322673125        2.27649737486058        0.05324119077836
C           -1.87564083246274       -0.26260616479199       -0.01524014235530
O           -3.06000857713537       -0.52560507468286       -0.06775289451473
N           -0.96066601513614       -1.36870757540744       -0.02961674372044
C           -1.41333139807660       -2.75216834747467       -0.01461542949173
H            3.61194580732421        1.31073381749095        0.98587605303289
H            3.96252487113132        1.03137873104100       -0.73623335130015
H            2.59666817057677        2.08081041033016       -0.25451688072049
H            3.57724606982864       -1.65181279511720        0.06665999084976
H           -1.97382803395889        3.42111245438549        0.78761019370909
H           -1.77090149740441        2.90916792532072       -0.70630659938414
H           -3.19196069153152        1.91418712008737       -0.12611078564994
H           -1.08351403562215       -3.26167451065189        0.89858495513191
H           -1.02409272940358       -3.30564499327510       -0.87705618744279
H           -2.49967355872155       -2.76723684473230       -0.05156809064431
H            1.39249433917477       -2.98491652569757        0.05920045292794
25
 energy: 33.619627082621 xtb: 6.6.1 (8d0f1dd)
C            3.16579098548465        1.18593332728133       -0.00681653587735
N            2.26206237951190        0.08444726350348       -0.02698880348928
C            2.59064882289554       -1.25584511583158        0.03676601259373
N            1.41823955133730       -1.97866870090355        0.03882170333799
C            0.37911620387420       -1.11977814410088       -0.00269872647788
C            0.87083733833657        0.17580215428210       -0.03350734512161
C            0.04548419829680        1.31752488877276       -0.05811966447097
O            0.40583691444167        2.49699476603106       -0.15768981323139
N           -1.34833971026558        1.02173261788723        0.07332414584372
C           -2.17180152092965        2.27592980404550        0.05008161381732
C           -1.87556843333869       -0.26321957927725       -0.01349359498523
O           -3.05998143275654       -0.52456392671202       -0.06741844107690
N           -0.96047767114376       -1.36877988055821       -0.02858973683654
C           -1.41355200237407       -2.75184535193807       -0.01415840875166
H            3.61255297639154        1.30978709252432        0.98501152711728
H            3.96178968427087        1.03114781212831       -0.73755530136591
H            2.59711956510159        2.08120794750856       -0.25426680906609
H            3.57656817228927       -1.65060001145980        0.06420373631533
H           -1.98112009141659        3.41182030514817        0.78639228570958
H           -1.75457982562875        2.90936911013987       -0.69885132607128
H           -3.19248265117801        1.91778633332544       -0.13744939090146
H           -1.08311479374822       -3.26113457356478        0.89867969440277
H           -1.02493959145272       -3.30493143344103       -0.87701412168524
H           -2.50005286858191       -2.76684414162624       -0.05014156284979
H            1.39217846851887       -2.98424396099300        0.05851275926811
25
 energy: 32.714471184296 xtb: 6.6.1 (8d0f1dd)
C            3.16546364739664        1.18582066322141       -0.00708393354151
N            2.26094404181143        0.08478171270276       -0.02680008208120
C            2.59019694374029       -1.25529258379219        0.03731858094504
N            1.41804585700089       -1.97823207110066        0.03795197888205
C            0.37874843277242       -1.11958851819895       -0.00349797040491
C            0.87062627157414        0.17541454411662       -0.03365682057187
C            0.04406836484117        1.31796731652477       -0.05802274577408
O            0.40693839904841        2.49712027769981       -0.15486305307341
N           -1.34891867452432        1.02216621494462        0.07242186530385
C           -2.17237829354099        2.27796232359765        0.04762634732315
C           -1.87536805274375       -0.26326295582664       -0.01321418390783
O           -3.05992565547251       -0.52354071084727       -0.06770606313230
N           -0.96068806650728       -1.36852775518407       -0.02812447682521
C           -1.41353553821174       -2.75147340482599       -0.01384843314158
H            3.61251128912969        1.30950444046069        0.98454167012458
H            3.96115674225437        1.03079839743260       -0.73822548701509
H            2.59728121125715        2.08158685319972       -0.25423458122763
H            3.57635395569723       -1.64949407645133        0.06278013227204
H           -1.98459461341602        3.40016163801155        0.78573318628603
H           -1.74552557455592        2.91113929359595       -0.69389264673515
H           -3.19363844134061        1.91979400697574       -0.14004630494272
H           -1.08275090671976       -3.26042617447291        0.89886679188769
H           -1.02486834117682       -3.30432240792821       -0.87676724275057
H           -2.50000574761580       -2.76716860693416       -0.04956385394397
H            1.39207741723801       -2.98385981474982        0.05934122219185
25
 energy: 31.004728140472 xtb: 6.6.1 (8d0f1dd)
C            3.16512632203760        1.18562506615618       -0.00727936428019
N            2.25993192530460        0.08493263007745       -0.02606199218901
C            2.58967652703445       -1.25517001250663        0.03894965964466
N            1.41761264290943       -1.97787751994285        0.03708639899956
C            0.37826468940761       -1.11949148351208       -0.00447330947673
C            0.87070138775131        0.17496470671021       -0.03405799049077
C            0.04343743976104        1.31834222983002       -0.05856675189414
O            0.40849685812252        2.49705900124537       -0.15411901086501
N           -1.34926292284431        1.02378493160571        0.06922612128500
C           -2.17209399973231        2.28178953650322        0.04523926926852
C           -1.87519417956417       -0.26262068014503       -0.01324079969571
O           -3.05982976841376       -0.52236984360236       -0.06744654098854
N           -0.96115038711219       -1.36771657338352       -0.02790969427860
C           -1.41343761257673       -2.75086307207033       -0.01378240167581
H            3.61211901490852        1.30974135392421        0.98417199890250
H            3.96067934434072        1.03019778369184       -0.73848402516218
H            2.59726768948975        2.08166056672569       -0.25466282035143
H            3.57635503820656       -1.64821555997177        0.06144146483928
H           -1.98780386681697        3.38206783715464        0.78660324164431
H           -1.73898374209347        2.91437709378036       -0.69216311177782
H           -3.19588924046516        1.92322813205077       -0.13702755127271
H           -1.08258939919006       -3.25951859210577        0.89896239558160
H           -1.02401166755589       -3.30344301822972       -0.87646449356825
H           -2.49969372293576       -2.76790015514621       -0.04988327927296
H            1.39248629796294       -2.98355575666766        0.06097648322164
25
 energy: 29.374872994713 xtb: 6.6.1 (8d0f1dd)
C            3.16495880746214        1.18563047066786       -0.00721324236105
N            2.25982674835599        0.08479051372017       -0.02523504869785
C            2.58935240639508       -1.25541289352679        0.04093570508561
N            1.41719694178095       -1.97781067551090        0.03687504845297
C            0.37793751338042       -1.11948748469493       -0.00492315750296
C            0.87094556640237        0.17489360341859       -0.03453094672589
C            0.04398283010929        1.31833606034472       -0.05948206314315
O            0.40891532828181        2.49681500214366       -0.15613300809291
N           -1.34907677820582        1.02530432073199        0.06631501130999
C           -2.17038675650055        2.28518204952195        0.04476395806044
C           -1.87537609241582       -0.26168871074133       -0.01357170781456
O           -3.05989811171827       -0.52182196933754       -0.06656011965802
N           -0.96158223841263       -1.36685614483264       -0.02826214177906
C           -1.41338766567320       -2.75039755953927       -0.01406837323873
H            3.61157444415071        1.31054569245844        0.98423276056907
H            3.96068710033896        1.02997510049424       -0.73805012259417
H            2.59694787741540        2.08143412740129       -0.25522314306583
H            3.57643196602711       -1.64767580423908        0.06081779041666
H           -1.98904349599477        3.36674074354641        0.78781821911998
H           -1.73891656416416        2.91796325730572       -0.69415129423275
H           -3.19686913984690        1.92620547651856       -0.13114226257219
H           -1.08269621262838       -3.25888320602109        0.89890746717609
H           -1.02301511224977       -3.30285014923864       -0.87638001609373
H           -2.49943271246963       -2.76840592983407       -0.05082586301032
H            1.39313801811595       -2.98349728858557        0.06212044653958
25
 energy: 28.073662048457 xtb: 6.6.1 (8d0f1dd)
C            3.16506382443486        1.18571812418783       -0.00707493545855
N            2.26055712430206        0.08436943813139       -0.02471069067217
C            2.58916846849311       -1.25577033292965        0.04282156250782
N            1.41687047562664       -1.97788194126534        0.03734484394802
C            0.37783232841956       -1.11933814379587       -0.00481840010348
C            0.87131898969119        0.17527335228084       -0.03490662404037
C            0.04538539641902        1.31841214182704       -0.06024365583780
O            0.40857853705412        2.49682856581921       -0.15935627746221
N           -1.34835513527403        1.02652268197696        0.06512504020505
C           -2.16827970075926        2.28720011101495        0.04596814546046
C           -1.87569295913974       -0.26040424046806       -0.01401676343527
O           -3.05994428033514       -0.52140391325010       -0.06568588359005
N           -0.96177813447075       -1.36595747445706       -0.02901460778827
C           -1.41345141502451       -2.74987559459657       -0.01447285312688
H            3.61121427723222        1.31140682016652        0.98448247568598
H            3.96112983430983        1.03007851160691       -0.73739586497479
H            2.59659084235728        2.08099051655068       -0.25575542123012
H            3.57635387713385       -1.64810253282593        0.06054040930403
H           -1.99033054725860        3.35599773252354        0.78979442958734
H           -1.74259092711293        2.92009784285959       -0.69803807929249
H           -3.19614231612916        1.92742112356218       -0.12670681356855
H           -1.08298214230492       -3.25831256258237        0.89877546156361
H           -1.02243146277671       -3.30243064244759       -0.87641972735178
H           -2.49939021348356       -2.76824988357168       -0.05172703762699
H            1.39351992653184       -2.98356109814571        0.06252516344472
25
 energy: 27.214046931360 xtb: 6.6.1 (8d0f1dd)
C            3.16526619866069        1.18589358143042       -0.00693954003554
N            2.26160263580413        0.08393700611358       -0.02474312989323
C            2.58915098670279       -1.25600493952650        0.04420275021477
N            1.41670482960688       -1.97795380462232        0.03813065659931
C            0.37792015024602       -1.11908348242924       -0.00433816652237
C            0.87158244568597        0.17583711431463       -0.03499565806452
C            0.04683769762915        1.31858032599114       -0.06030582976653
O            0.40788749283099        2.49708927572804       -0.16173224188388
N           -1.34758156121519        1.02705920359564        0.06647543130187
C           -2.16646437774520        2.28795009853305        0.04828926030014
C           -1.87601796536727       -0.25916061084295       -0.01398548205434
O           -3.05997608695436       -0.52100818282314       -0.06516897526928
N           -0.96174323861797       -1.36533322916467       -0.02972963429046
C           -1.41354960446428       -2.74944492908107       -0.01485122732962
H            3.61113611843213        1.31197593725476        0.98475233437199
H            3.96165572952416        1.03059558002449       -0.73690857875797
H            2.59625760691509        2.08064706636271       -0.25594605690011
H            3.57613870654639       -1.64917397157140        0.06011031186195
H           -1.99152375067199        3.34975993061788        0.79055795906691
H           -1.74731208869485        2.92059506740973       -0.70141208308092
H           -3.19405791683180        1.92770135905399       -0.12620264537526
H           -1.08316320900129       -3.25797252661238        0.89851218126643
H           -1.02241618762621       -3.30216820646452       -0.87664987264516
H           -2.49952174724902       -2.76766111806452       -0.05218947932461
H            1.39340180379132       -2.98362794305560        0.06210161235764
25
 energy: 26.771922108052 xtb: 6.6.1 (8d0f1dd)
C            3.16547384921120        1.18598856952313       -0.00695237764521
N            2.26229511159079        0.08372907942445       -0.02533201137209
C            2.58919899444777       -1.25596384620155        0.04489720980954
N            1.41668464776476       -1.97787445789655        0.03876770953607
C            0.37806678239181       -1.11873850844271       -0.00395010018944
C            0.87167245481802        0.17630073105556       -0.03490722943390
C            0.04763441744913        1.31901866156609       -0.05974164705540
O            0.40767205544282        2.49760735523093       -0.16187814920471
N           -1.34707864913394        1.02719489720832        0.06914684568314
C           -2.16589464939817        2.28797485567597        0.05058216727402
C           -1.87606314259114       -0.25813401957362       -0.01386151126339
O           -3.05986393069465       -0.52030312798528       -0.06541222335354
N           -0.96156831986908       -1.36498576551192       -0.03007478167956
C           -1.41368162379033       -2.74901777237585       -0.01488855279865
H            3.61133121602567        1.31192697256917        0.98482587538550
H            3.96201085540162        1.03107437619005       -0.73690137909896
H            2.59621797886416        2.08056258255073       -0.25584645536307
H            3.57585044858066       -1.65021666799363        0.05931215140030
H           -1.99349766729239        3.34675821749212        0.79074122361719
H           -1.74945560364322        2.91920540691470       -0.70274540564918
H           -3.19167931107350        1.92691590382759       -0.12985109897429
H           -1.08324031639998       -3.25764941342372        0.89842688240349
H           -1.02290970710147       -3.30193710237669       -0.87675710342469
H           -2.49976376410281       -2.76684091737786       -0.05198731143443
H            1.39280254103856       -2.98356740789772        0.06142116897851
25
 energy: 26.580119227149 xtb: 6.6.1 (8d0f1dd)
C            3.16550679647994        1.18600809841959       -0.00703650523899
N            2.26228136934892        0.08383115511507       -0.02602946077268
C            2.58926640196032       -1.25575021316366        0.04512550345208
N            1.41675177574219       -1.97771180430155        0.03889128574129
C            0.37812696367508       -1.11855815583435       -0.00389288850255
C            0.87157672269638        0.17638561207036       -0.03475558047526
C            0.04754073000418        1.31933337152686       -0.05895190093931
O            0.40794621236247        2.49794983301399       -0.16041032419673
N           -1.34705274614149        1.02707241387277        0.07130452946983
C           -2.16619617050583        2.28822454256676        0.05194542337139
C           -1.87591486705792       -0.25771551871196       -0.01345761666135
O           -3.05974686483405       -0.51971018188376       -0.06597761656318
N           -0.96146672109422       -1.36499038353275       -0.02987925492410
C           -1.41374741293103       -2.74881468047545       -0.01472663856145
H            3.61150147344670        1.31154808152943        0.98475037562008
H            3.96201404178510        1.03130574183957       -0.73716944882052
H            2.59636334123621        2.08074455370640       -0.25561397650180
H            3.57571514597162       -1.65054368986512        0.05837075727010
H           -1.99486631154807        3.34504480936371        0.79001756880395
H           -1.74897355901925        2.91791429229855       -0.70219100608289
H           -3.19025705447364        1.92664953217709       -0.13436228264608
H           -1.08312135201417       -3.25753811143686        0.89841075182343
H           -1.02337482164631       -3.30176360855385       -0.87679225982379
H           -2.49990799681381       -2.76646025762575       -0.05151549486284
H            1.39224957130697       -2.98342682994338        0.06097995616863
25
 energy: 26.574975979930 xtb: 6.6.1 (8d0f1dd)
C            3.16547262905666        1.18589498972128       -0.00714855127510
N            2.26178395459437        0.08407963397702       -0.02660448756271
C            2.58930619557597       -1.25552962923381        0.04522458610942
N            1.41684004963934       -1.97755549432188        0.03867912665107
C            0.37809118130818       -1.11853254749676       -0.00416644588981
C            0.87148154938634        0.17619884370735       -0.03475981488195
C            0.04699652903857        1.31952224279484       -0.05853788999522
O            0.40863268104470        2.49806351100458       -0.15868299865668
N           -1.34717690801507        1.02702945093887        0.07181865658956
C           -2.16704000489244        2.28870854520977        0.05249231007904
C           -1.87559011322949       -0.25770917969081       -0.01332821354215
O           -3.05957012961257       -0.51925480850708       -0.06654588244416
N           -0.96145588506727       -1.36511640513861       -0.02937368866358
C           -1.41378758624933       -2.74872439619385       -0.01442048451366
H            3.61152571567916        1.31105161377870        0.98463226111315
H            3.96188424423649        1.03110030722212       -0.73744056886195
H            2.59668293668520        2.08097004714891       -0.25550183237585
H            3.57575957035343       -1.65020673990881        0.05757857878884
H           -1.99592645396250        3.34459107943006        0.79014050823897
H           -1.74728095221286        2.91702427179517       -0.70107719601880
H           -3.18977130581807        1.92625765221174       -0.13786437730324
H           -1.08305523832912       -3.25749305399556        0.89857491642195
H           -1.02359367118486       -3.30161840861575       -0.87664238663257
H           -2.49994244069078       -2.76643274636643       -0.05110469060743
H            1.39194812060224       -2.98329017729936        0.06109246138008
