  25
        -42.17857904
 C          3.3416244567        0.6253039637        0.1909182583
 N          2.2403517403       -0.2828379364        0.0360950764
 C          2.3081007002       -1.6005222584       -0.1395698993
 N          1.0571168553       -2.1203983372       -0.2058157583
 C          0.1591751837       -1.1015567746       -0.0597274665
 C          0.9089176793        0.0777686578        0.0902911918
 C          0.3347051955        1.3929344270       -0.0016204519
 O          0.9200881119        2.4493252906       -0.1206366136
 N         -1.0930336328        1.3199563112       -0.0324107708
 C         -1.8097079111        2.3431810974       -0.4030727926
 C         -1.8378868366        0.0892974591        0.5847065861
 O         -3.0714231150        0.1260057135        0.4321864516
 N         -1.1660653427       -1.1314286075       -0.0369455179
 C         -1.9773771043       -2.2776349324       -0.3478074313
 H          3.6279140729        0.6981283124        1.2431858159
 H          4.1985602927        0.2806982906       -0.3848559072
 H          3.0357108594        1.6158255592       -0.1478681384
 H          3.2122913536       -2.1693472232       -0.2219894312
 H         -1.2993228977        3.2394617234       -0.7112723471
 H         -2.8829607681        2.2553302944       -0.3799966751
 H         -1.4259309439        0.1133081744        1.6276147466
 H         -1.8864364840       -3.0572732748        0.4145296424
 H         -1.7069969385       -2.6766497198       -1.3257833805
 H         -3.0122938437       -1.9275091508       -0.3681429825
 H          0.8479601504       -3.0978591396       -0.3450853181
