  25
        -42.17198281
 C          1.8920854476        1.3775927538        1.4180036322
 N          1.4699258866        0.1996525446        0.7117870331
 C          2.1763361951       -0.8723006847        0.4680745318
 N          1.4933808330       -1.7859310198       -0.1989413902
 C          0.1866160704       -1.3455541739       -0.4483440814
 C          0.1504387216        0.0862162568        0.1265445445
 C         -0.0731451631        1.1628529014       -0.9933059211
 O          0.6382208410        1.2891387076       -1.9456676298
 N         -1.1605373572        1.8605171110       -0.6529150808
 C         -1.7786492986        1.5334032072        0.6030235354
 C         -0.9981349167        0.3428730758        1.1211569464
 O         -1.1915818546       -0.2917572623        2.1108092171
 N         -0.6481604923       -2.0723316130       -1.0139075255
 C         -1.9913255201       -1.7326718203       -1.2969319951
 H          1.2778165033        1.5199027237        2.3097537864
 H          2.9317437947        1.2727087237        1.7192806506
 H          1.7977065129        2.2551963054        0.7753018606
 H          3.2000701958       -0.9963333969        0.7816845454
 H         -1.5094773353        2.5994220397       -1.2438667785
 H         -2.8429947717        1.2973535685        0.5019002261
 H         -1.7001144942        2.3545250028        1.3261596956
 H         -2.6292458230       -2.4549321283       -0.7868557359
 H         -2.1481441930       -1.8609498601       -2.3684624433
 H         -2.2632122997       -0.7193164485       -0.9966062339
 H          1.8174795319       -2.6950282481       -0.4984833757
