25
 energy: 10.598314018245 xtb: 6.6.1 (8d0f1dd)
C            3.49108435722889        1.06774810832036        0.10599375564928
N            2.35910843882362        0.18247497605180       -0.01913809150805
C            2.55329698279029       -1.20038821490897       -0.02919344728999
N            1.32626192287173       -1.81244072942318       -0.05373005589372
C            0.36262431974886       -0.87654363819289       -0.03736854956328
C            0.90854648148536        0.40542124707557       -0.00484660613815
C           -0.04997173895688        1.49876415158340        0.04174549176444
O            0.23771590442607        2.68620401696340        0.05958827953796
N           -1.53027569108144        1.10042134043593       -0.04096665510217
C           -2.52536403086797        2.14533100748471       -0.04328033705277
C           -2.01483632874448       -0.15720100365463       -0.08900716415102
O           -3.16450000163912       -0.51600910440862       -0.16212436799603
N           -0.97367370351720       -1.15812448615665       -0.05190254901458
C           -1.33611857820605       -2.56552277451793       -0.03927044750411
H            3.92064116416023        1.07402093640975        1.13860860076118
H            4.35859695995227        0.67340856418325       -0.49040527212526
H            3.21413874798132        2.06476418459373       -0.23468643377278
H            3.47014727484484       -1.78128498387148       -0.02991416105166
H           -1.92414176678339        3.05659932633091       -0.00098072636716
H           -3.15015118683380        2.10424280084517       -0.94297124308421
H           -3.22400916574338        2.04861111355132        0.79960499576687
H           -0.97847745204537       -3.08741287161749        0.85283362489756
H           -0.96884308032421       -3.08112139277499       -0.93189774843085
H           -2.40968932438605       -2.61119007113289       -0.01725121598779
H            1.16886248874236       -2.81760979533733       -0.05005579204981
