25
 energy: 55.618189206663 xtb: 6.6.1 (8d0f1dd)
C            3.45200008826243        0.94376035438033        0.14040536088779
N            2.53668156833991       -0.16748941135744        0.03791195221642
C            2.84418258711509       -1.45558151496212       -0.10388533769817
N            1.69367095176399       -2.17683021447909       -0.11555296296474
C            0.63314411173679       -1.31394969567062        0.02105661371666
C            1.18087766431265       -0.03948134504700        0.12088925003020
C            0.29133880688207        1.13578106696498        0.25068107148488
O            0.70423898463964        2.28793942316040        0.23079787762080
N           -0.99685399567394        0.77507020918932        0.35396021444046
C           -3.60925625305679        3.58058692167114       -0.40513254310589
C           -1.60268975576578       -0.36275105038344        0.22140342445839
O           -2.77226899004447       -0.63972134411670        0.17538159311784
N           -0.65729157832826       -1.58471728987058        0.04317680778987
C           -1.21089271239776       -2.90405786421145       -0.01535191304204
H            3.97669240824862        0.96880103672293        1.10074654774033
H            4.18611554955164        0.91087816573635       -0.66425476772397
H            2.87240288905925        1.86551401305697        0.07867339502010
H            3.82728864873080       -1.87509250293722       -0.18721091154386
H           -2.81626766979806        4.29503343878002       -0.37502579079369
H           -3.92794460352203        3.16677810869644       -1.34077716062776
H           -4.09015274362342        3.28516754711942        0.49972388331982
H           -0.87302031130500       -3.50779528946153        0.83019130675859
H           -0.95314677748371       -3.40338935899299       -0.95528765207528
H           -2.29476329210532       -2.79033136505232        0.04429965412589
H            1.59819246848856       -3.17061787937027       -0.23957402060012
