25
 energy: 58.722011592970 xtb: 6.6.1 (8d0f1dd)
C            3.44534128665229        0.94767188861108        0.19143739029165
N            2.42870227543645       -0.05477977116992        0.00002097403837
C            2.73273969125523       -1.33843249593218       -0.12815295571691
N            1.59491880403107       -2.07347688054801       -0.16009680502436
C            0.53663824333542       -1.20053959757149       -0.04842788995247
C            1.06958933192415        0.07390683351175        0.04143107300963
C            0.16062798079287        1.24903432207971        0.20236026307652
O            0.63778916009151        2.35500380522117        0.41777925584961
N           -1.15148810128168        0.96578832962123        0.14576631147488
C           -3.16329878842846        3.02813188310197       -0.38562660344882
C           -1.69747146170257       -0.21552910780585        0.19097993575242
O           -2.83476769900058       -0.54761842208721        0.39986506540306
N           -0.76084012786275       -1.42504395056759        0.00501378995869
C           -1.24857676846438       -2.77015756639347        0.02898509620625
H            3.96411284830880        0.70356413868144        1.12388183969206
H            4.15917727218918        0.88705892039948       -0.62968092946116
H            3.02187872296959        1.93874242892268        0.25484822267301
H            3.71492667370336       -1.70190092220953       -0.30436909815827
H           -2.44967937469946        3.79891471209426       -0.37834244716697
H           -3.56683185588701        2.71615396264046       -1.31133380114918
H           -3.69101741868775        2.79570450743722        0.49341033428374
H           -0.80038865021385       -3.30041525635762        0.87381283104019
H           -0.95138426996086       -3.25639514649443       -0.89917989266159
H           -2.33694165968664       -2.78079695737132        0.10355142110937
H            1.57903299258130       -3.07415807869278       -0.23928638242499
