25
 energy: 58.006737647578 xtb: 6.6.1 (8d0f1dd)
C            3.45024328225715        0.93269276845334        0.19523587818300
N            2.44141031033545       -0.07591342963011        0.00965642302135
C            2.74894552103766       -1.35629742786807       -0.12812245603631
N            1.61358171131439       -2.09280179589618       -0.15580448193371
C            0.55219076342540       -1.22205141056037       -0.03805577077164
C            1.08583482033168        0.05276911651853        0.04953986862701
C            0.18175668278457        1.22874589873125        0.21106301385327
O            0.65413810670767        2.33667628424359        0.40785801939865
N           -1.12476157964410        0.94296183615428        0.16909681725503
C           -3.23106638223288        3.10743040876858       -0.39356362760019
C           -1.67497705055911       -0.23213653023182        0.20196969714465
O           -2.81381463855234       -0.55765438655969        0.38729568607492
N           -0.74337153739697       -1.44948486247108        0.00860782724872
C           -1.24188206108704       -2.79069515356697        0.02904712909849
H            3.97082093474075        0.70479281118851        1.12261300573906
H            4.16719076359597        0.87819133916483       -0.62303888044732
H            3.00807165219604        1.91220244367133        0.25692878536567
H            3.73277546488702       -1.72439067585086       -0.27786105774045
H           -2.50455572386862        3.86596705892646       -0.38520998792752
H           -3.62013585464273        2.77807620391994       -1.31942462448266
H           -3.75008890723904        2.86133483709981        0.48803403334294
H           -0.79948534097639       -3.33320122118260        0.86859694270328
H           -0.95813008630523       -3.27807223034204       -0.90273177634686
H           -2.32893684114563       -2.79052372759537        0.12335201941757
H            1.60413089440323       -3.09401678012991       -0.23690835916527
