25
 energy: 38.055942725613 xtb: 6.6.1 (8d0f1dd)
C            3.53604122327732        2.64342315363437        0.18304803165948
N            2.36912447417747       -0.50841459327485        0.01574053081348
C            2.44940483708017       -1.80024707693998        0.02041324775587
N            1.23308027186024       -2.44274442106116        0.01643647778799
C            0.30185437861938       -1.43909816342034       -0.02560686734803
C            1.02950666394265       -0.24364165184157       -0.02728460517399
C            0.30503881693193        1.01173113367401       -0.06958159243628
O            0.74192466845751        2.13095078022616       -0.13062032197117
N           -1.07487309348720        0.83734836002717       -0.04287504432324
C           -1.86160025751955        2.06660398390673       -0.02504513219359
C           -1.78934604064994       -0.33253726638029       -0.06174447319344
O           -3.00214263346569       -0.30639554198758       -0.07997569488534
N           -1.06440973533796       -1.53217854665771       -0.06165303163302
C           -1.87637261930314       -2.74395110201932       -0.08563643419221
H            4.00518680449151        2.85134248799152        1.08824383992151
H            3.98547505740532        2.76100349637944       -0.75396735363791
H            2.49087698336257        2.67600484147774        0.15627310914276
H            3.36339276947365       -2.34957794310728        0.05411418370819
H           -1.16129098471210        2.89504591430196       -0.02091229502564
H           -2.49244770714561        2.13756311219218       -0.90780605119368
H           -2.44429965698335        2.10007507602327        0.88729221422242
H           -1.74971151254662       -3.36192446425706        0.80396419003887
H           -1.72270954021718       -3.34752498162574       -0.98088410289643
H           -2.92565486409088       -2.41281907320491       -0.09874885410658
H            1.09019351559103       -3.44364395369400        0.02840470209346
