  25
        -42.19945741
 C          3.3723654242        0.6073128197        0.0208585185
 N          2.2634672284       -0.3063221146        0.0103835853
 C          2.3351591899       -1.6495301806        0.0000081851
 N          1.0808458468       -2.1749775759       -0.0107205141
 C          0.1916222704       -1.1343186824       -0.0052349815
 C          0.9323603533        0.0488117100        0.0067660507
 C          0.3251964089        1.3443492607       -0.0147415061
 O          0.8787023588        2.4277804332       -0.0351617587
 N         -1.0915099035        1.2371647241       -0.0063839403
 C         -1.8576054274        2.4702540333        0.0011375353
 C         -1.7778882108        0.0723196724        0.0082223928
 O         -3.1024002289        0.1481983752        0.0791846423
 N         -1.1794603502       -1.1611239189       -0.0285785776
 C         -1.9076977656       -2.3186669717       -0.0380959753
 H          3.9463955813        0.4989971249        0.9425851300
 H          4.0303757266        0.4141688076       -0.8270335975
 H          2.9851138957        1.6236031978       -0.0430652238
 H          3.2376961245       -2.2229232093       -0.0005154779
 H         -1.1452182778        3.2930723679       -0.0047055250
 H         -2.4968221997        2.5221158019       -0.8792683283
 H         -2.4804700100        2.5209385732        0.8935561126
 H         -1.3969384071       -3.2421179911        0.1097581319
 H         -2.9045975986       -2.3330206974       -0.4247556810
 H         -3.4808768526       -0.7151682482        0.3140095496
 H          0.8605476960       -3.1580799307       -0.0376333911
