  25
        -42.14280333
 C          3.3014360499        0.5650505174        0.0129489297
 N          2.2819008067       -0.2907516367       -0.0157198577
 C          2.3312340797       -1.6440599449       -0.0276643142
 N          1.0646042866       -2.1536615467       -0.0248017068
 C          0.1894434000       -1.1144327341       -0.0120835984
 C          0.9348058967        0.0593093590       -0.0077059414
 C          0.3149448784        1.3583902180       -0.0126655410
 O          0.8862481041        2.4261564725       -0.0255572262
 N         -1.0836854849        1.2556963911       -0.0092479659
 C         -1.8441190130        2.4941017011       -0.0178743952
 C         -1.8451902173        0.1015294931       -0.0070087048
 O         -3.0476003781        0.1288176150       -0.0077469713
 N         -1.1569397221       -1.1277736814       -0.0051716146
 C         -1.9190767222       -2.3589682128       -0.0075492179
 H          2.5155824226        1.1945204588        2.4778419755
 H          4.3071194905        0.1916794614       -0.0768534112
 H          3.0910723778        1.6188336140       -0.0099515887
 H          3.2260671681       -2.2305023263       -0.0365623253
 H         -1.1417409183        3.3246761378        0.0260922831
 H         -2.4449597773        2.5574196317       -0.9268724561
 H         -2.5199091435        2.5216327856        0.8381616531
 H         -1.6904635022       -2.9513058341        0.8791224480
 H         -1.7093559705       -2.9375063286       -0.9081384809
 H         -2.9758245915       -2.0925974222        0.0052398824
 H          0.8436582972       -3.1383608157       -0.0273930550
