25
 energy: -42.044441024364 gnorm: 0.006906571519 xtb: 6.6.1 (8d0f1dd)
C            2.93375908236628        1.16318586511628       -0.14043281063223
N            2.04651234801051        0.03505574889568       -0.12985086172042
C            2.36815050139385       -1.23272428906133       -0.37240191781421
N            1.27996458614776       -1.99990572658295       -0.28997974848269
C            0.18351129568330       -1.22883328372269        0.05869851200125
C            0.66803382771596        0.11588631021321        0.14103475985022
C            0.06787717667064        1.29629458938954        0.41332286926958
O            0.45367942978185        2.56640182020630        0.65116384068476
N           -0.89425546133524        2.07359541631343        0.98954652528307
C           -1.97188121621104        2.64879345112861        0.22889777492665
C           -1.85358755122934       -1.13804055020526       -1.03829871893023
O           -1.95008922749460       -0.13297590731125       -1.64829856113595
N           -1.12338329993959       -1.70085396373087       -0.10502730395169
C           -1.51421586196007       -2.96456223520601        0.50736503222861
H            2.92443468562799        1.65843130474248        0.83168637677736
H            3.94272878414520        0.82916826396889       -0.36799169595463
H            2.61434907055590        1.88906747810904       -0.88971818162012
H            3.35821532753390       -1.58576481436774       -0.58318587851593
H           -2.25509446158251        3.57967799571849        0.71527826489594
H           -1.71494698944069        2.83622021057274       -0.81582097445411
H           -2.80412480513191        1.94898718173433        0.27913496506468
H           -1.05695849652386       -3.03208977755893        1.49293092394113
H           -1.20948013268306       -3.82052728706929       -0.09715660848082
H           -2.59654807209956       -2.98539983321408        0.61554126403891
H            1.26378097409734       -3.00084942647717       -0.41526622937016
