25
 energy: -42.411592151238 xtb: 6.6.1 (8d0f1dd)
C            3.25430443307478        1.16571508489219        0.07760272352225
N            2.26790402069262        0.10594354716496        0.04296705161420
C            2.61359543327038       -1.16417666959892        0.02619271028898
N            1.52646202896516       -1.94515928305681        0.02252011885568
C            0.35969664533468       -1.11902257382640        0.08268426768604
C            0.90773153164707        0.19994041395219        0.06610196657810
C            0.07845468735445        1.41786195970384        0.06853625031266
O            0.63851081784842        2.51716131295434        0.12200338554441
N           -1.23247047281931        1.14570291284345       -0.02760778739179
C           -2.10662775240964        2.24788345621234        0.14718604272322
C           -2.63223350195011       -0.41267477157016       -1.40590807522997
O           -3.72028708304534       -0.09037741413393       -1.38987092841720
N           -0.86577785482055       -1.42711913749962        0.18219638345779
C           -1.36766283813988       -2.74476896756289        0.19836887205728
H            3.74055992987910        1.21602111211664        1.05806380593202
H            4.02679325740665        0.98339692972976       -0.67070230889365
H            2.77748476959247        2.12814163948397       -0.11011813953756
H            3.62377834080640       -1.52109525894443       -0.00199598529150
H           -1.53949655389822        3.16855183365041        0.23918188676998
H           -2.79554209756430        2.34160887934053       -0.70024901735280
H           -2.72961429817377        2.09576483161169        1.03086674838980
H           -0.67409213648985       -3.36029917562146        0.77495788752893
H           -1.48690478976864       -3.20009212316414       -0.78081880383066
H           -2.35383221330606       -2.70519643537283        0.65370954233901
H            1.59755169588425       -2.94702111023310        0.04862793821524
