25
 energy: 0.000000000000 xtb: 6.6.1 (8d0f1dd)
C            3.23720163006194        1.16630919979326        0.08434469647475
N            2.29877817382611        0.07527477071623        0.03981603040599
C            2.58028210190900       -1.21425402444508        0.03006176031096
N            1.43813958087363       -1.93419271955128        0.00098261760884
C            0.39035688448383       -1.05887472636071       -0.00790371836672
C            0.93510056364412        0.21347819449412        0.01709077491437
C            0.09450143893243        1.40504303904423       -0.00410947031874
O            0.49712751527797        2.54126714362870       -0.00342325688240
N           -1.25076640035757        1.06271879480407       -0.03085478223738
C           -2.21907211982101        2.15522099834493       -0.05001256985998
C           -1.81739487048744       -0.20012725993278       -0.04692818574614
O           -2.99983886758376       -0.37846417018721       -0.07008878229737
N           -0.92618586207120       -1.30210215599479       -0.03682761578324
C           -1.46982264913417       -2.64643102187190       -0.06029820460571
H            3.71247264356769        1.21471455160235        1.06488849150277
H            4.00791497605742        1.03430808813993       -0.67357694370751
H            2.69910007168542        2.09770118228144       -0.09130154882931
H            3.56654120610678       -1.63682992603973        0.04233140067262
H           -1.67107961066214        3.09322851271934       -0.02552706933167
H           -2.82428953597071        2.09428624779827       -0.95318082946668
H           -2.87644029173232        2.07745725625962        0.81450067533302
H           -1.17061996399332       -3.19584890659852        0.83242232437030
H           -1.14560257411436       -3.17511610292205       -0.95688275822323
H           -2.55549792440841       -2.55659984320617       -0.07459039797972
H            1.38130855184625       -2.94313852034425       -0.01389874181052
25
 energy: -3.123279276997 xtb: 6.6.1 (8d0f1dd)
C            3.24922899560901        1.17813122612254        0.08038917369132
N            2.30725573208486        0.09914657928002        0.03947947667441
C            2.60225216473510       -1.22555572829804        0.03079223349628
N            1.43103645622400       -1.93647689929329        0.01277358236100
C            0.38704272644879       -1.05763489307973        0.00105174588315
C            0.92673121187033        0.21903752575697        0.02220018310656
C            0.09621351185473        1.38694687795439        0.00834089067215
O            0.50584172216493        2.54997745928929        0.01762885725062
N           -1.27536946992158        1.04127723379102       -0.04562492028888
C           -2.20783327027853        2.16078888155651       -0.02479680126108
C           -1.88160348273913       -0.21302628430348       -0.15781350177386
O           -3.08626680342599       -0.37444202097773       -0.23863650910859
N           -0.95399557773157       -1.30380102562743       -0.04208537665185
C           -1.46338618532063       -2.65500747317597       -0.02989569413514
H            3.73198701710010        1.22643487727212        1.06025935197558
H            4.01726377661006        1.03701974502715       -0.68233326455289
H            2.70958765889548        2.10576166906765       -0.09818455229245
H            3.58497613246568       -1.64416375098841        0.03169933521250
H           -1.64609231157456        3.09393546225400        0.01538769690248
H           -2.81330298984391        2.12259135514082       -0.92721921715190
H           -2.85756700181947        2.07780874203885        0.84543049968225
H           -1.11912861180159       -3.20696390059875        0.84869044978605
H           -1.16393328699582       -3.18065551421025       -0.93692593947548
H           -2.54695679234986       -2.57113789139480        0.00182532865774
H            1.37823334567580       -2.94096365043148       -0.00539913251270
25
 energy: 9.343934543578 xtb: 6.6.1 (8d0f1dd)
C            3.26547073857322        1.18872306043683        0.07364029985874
N            2.31285333063739        0.12720480182644        0.03912162944155
C            2.62244570709472       -1.23481317004030        0.03319147616728
N            1.41907870677125       -1.93232263579419        0.02868192022474
C            0.37799081395662       -1.05499370180517        0.01989547187298
C            0.91368164223211        0.22506545462082        0.03421867956035
C            0.09724583949847        1.35691754826338        0.02620230650852
O            0.50805346986939        2.54250220307606        0.04692420540133
N           -1.31304121451193        1.00999010885663       -0.06233140514648
C           -2.18934230355581        2.17284220267359        0.01599300013559
C           -1.97900506238438       -0.23391181924549       -0.32979122737112
O           -3.19473834491000       -0.36543301773364       -0.54371482684815
N           -0.99425622586009       -1.30209315069715       -0.04434346947017
C           -1.45018271685354       -2.66721645738220        0.01954251042568
H            3.76094919676394        1.24145232465629        1.05051036639764
H            4.03129980436342        1.03774823175497       -0.69398032762101
H            2.73108152293505        2.11716515707508       -0.10820143435498
H            3.60322362447277       -1.64334991474606        0.01580527227703
H           -1.60754304166229        3.09759934350520        0.07910666905315
H           -2.80249299149390        2.17490617101769       -0.88025987498893
H           -2.82287792774307        2.08461661099766        0.89881682200468
H           -1.02231918842320       -3.22330243638346        0.86909656973323
H           -1.20846886324812       -3.19305854104656       -0.90822963154057
H           -2.53156468248597       -2.60264726982417        0.14069202704724
H            1.38467283390019       -2.93456250189034        0.00644686737902
25
 energy: 29.709431997159 xtb: 6.6.1 (8d0f1dd)
C            3.27749578279131        1.19236295162500        0.07304539123313
N            2.31198489487632        0.14171870887243        0.04360280877600
C            2.62704555002014       -1.23708914296818        0.04214678248164
N            1.41039210913549       -1.92744748112044        0.03765214510622
C            0.36523368625444       -1.05518566742381        0.01894763082409
C            0.90416836216751        0.22510349976123        0.03940653742190
C            0.08794818657303        1.34003767596347        0.02604627679928
O            0.49783613646143        2.53283711272605        0.07003501090058
N           -1.34988522944477        0.98786841327441       -0.09411401588456
C           -2.17572758669929        2.18643184872745        0.05482905472206
C           -2.05748404955286       -0.24990523558905       -0.50131043287389
O           -3.26198545586368       -0.35636567640203       -0.81119887810935
N           -1.02787986321905       -1.29937116336944       -0.06709072942623
C           -1.43753662751205       -2.67913705161512        0.06531595107291
H            3.78226582111769        1.25072088461115        1.04674829689181
H            4.04369894949984        1.03278392452044       -0.69496147464890
H            2.75651853852526        2.12779274255402       -0.11330220079569
H            3.61171123663612       -1.63523817692584        0.00943773614158
H           -1.57011771682902        3.09835061809778        0.14223236698514
H           -2.80146934233613        2.23960122881485       -0.83046906597085
H           -2.78546359450866        2.09099898210198        0.95516908004453
H           -0.91567279159259       -3.22705238117112        0.88159222039206
H           -1.26881444104859       -3.21355944510020       -0.87955053488091
H           -2.51225681924742       -2.64638197528247        0.29421401374057
H            1.40020893173185       -2.93084659251065        0.01860992520419
25
 energy: 43.418246165616 xtb: 6.6.1 (8d0f1dd)
C            3.28253749185712        1.18980019033173        0.08164314277579
N            2.30569097975800        0.14362964569864        0.05289495152723
C            2.61953224470597       -1.23171333900006        0.05635896863174
N            1.40777845141384       -1.92359518280919        0.03325003424690
C            0.35262276751426       -1.05808354741363       -0.00433325208244
C            0.89900986631886        0.21995536775347        0.03385464599184
C            0.07353085985723        1.33646080752075        0.00434611374141
O            0.48584156381652        2.52081185979480        0.07274527621589
N           -1.37834726184460        0.97825192326795       -0.13543876318422
C           -2.16845207846031        2.19538923653063        0.08210237869120
C           -2.11002105108546       -0.25870274302186       -0.62599487711194
O           -3.28737230737547       -0.34525483125771       -0.97887550480976
N           -1.04863953132791       -1.29852673034485       -0.10406480245789
C           -1.42652735377731       -2.68656436986704        0.09774732362094
H            3.78913457654797        1.25093493701595        1.05417664866259
H            4.05171002191161        1.02270914627832       -0.68232899763378
H            2.77820729768547        2.13439938077855       -0.10989070229267
H            3.61106766714663       -1.62010432029702        0.01366612311949
H           -1.54348597714924        3.09441148238739        0.18780173873963
H           -2.81189531481338        2.30018215319171       -0.78473637179675
H           -2.74918622393730        2.09022374785319        1.00228508812338
H           -0.82856022743418       -3.21622914828127        0.87841893074121
H           -1.33289294326845       -3.23881679637432       -0.85114335461784
H           -2.48164108100120       -2.68098505327411        0.42702710933970
H            1.42257223087764       -2.92955521429014        0.02552204796571
25
 energy: 46.676462002088 xtb: 6.6.1 (8d0f1dd)
C            3.27954502327022        1.18394994662998        0.09051017473112
N            2.29602765181468        0.13722063753042        0.06189633464770
C            2.60544261169287       -1.22032197560344        0.06859775879541
N            1.41001342748740       -1.92125442973158        0.02157036063939
C            0.34360226208590       -1.06202153062110       -0.02477896520498
C            0.89662670213799        0.21308358818000        0.02764635705672
C            0.06295193380987        1.34044118190030       -0.01566267357142
O            0.48085018066963        2.50752116374701        0.06021084342072
N           -1.38868508060642        0.98089352705314       -0.15790541932146
C           -2.16588822638435        2.19490298389819        0.09426987264991
C           -2.13054081438380       -0.26003196822737       -0.66619137075775
O           -3.27993791335844       -0.33274673227470       -1.07846168599486
N           -1.05210061369020       -1.30176365691809       -0.12418142955049
C           -1.42041825085929       -2.68666404065092        0.11477765392956
H            3.78325724115502        1.24391376456921        1.06344634159848
H            4.05101683987281        1.01128650838537       -0.66910415715058
H            2.78782126285824        2.13511667696917       -0.10414016173953
H            3.60323473075192       -1.60192135824327        0.01520903258331
H           -1.53357643827655        3.08634405863129        0.20425931709308
H           -2.82588700056396        2.33311510037896       -0.75077818632245
H           -2.72396364473587        2.08203800572641        1.02800111032804
H           -0.78363721779930       -3.20259741028393        0.85971210928341
H           -1.38229136731418       -3.25457880379264       -0.82496492194816
H           -2.44492334532096       -2.68795341080573        0.50712082753654
H            1.44367471362303       -2.92894322427483        0.02597477341566
25
 energy: 43.185767060334 xtb: 6.6.1 (8d0f1dd)
C            3.27229731168500        1.17886793201796        0.09841976539338
N            2.28721090634010        0.13001102019996        0.06769442454259
C            2.59313582480211       -1.21017401199386        0.07983583332282
N            1.41176247904447       -1.92092231198007        0.00971794218908
C            0.33881403157110       -1.06402466009366       -0.04284515672286
C            0.89416937064389        0.20879185259648        0.01699426267283
C            0.05834584698472        1.34429320352709       -0.03255673864231
O            0.48055772206842        2.50009754920170        0.05531815625163
N           -1.38374813064233        0.98914673412152       -0.17105785060787
C           -2.16570578951808        2.19133139097045        0.09426757126366
C           -2.12500195259988       -0.25647596121640       -0.66412865346154
O           -3.25131331114272       -0.32275419243633       -1.10040992829217
N           -1.04424558184005       -1.30733222261470       -0.13838406468711
C           -1.42051000413860       -2.68479699339818        0.11847846847042
H            3.76964657214936        1.23626451327937        1.07379486236375
H            4.04636939913759        1.00251585815957       -0.65669357211357
H            2.78542467974307        2.13135865629700       -0.09895710307091
H            3.59292704577290       -1.59073143428093        0.01941761861233
H           -1.53467367475926        3.08221419803393        0.20138643015753
H           -2.83640606604442        2.34271114837725       -0.73614152366269
H           -2.71449313657220        2.07271075886686        1.03169963387466
H           -0.74764402215333       -3.19535078504556        0.83171367314718
H           -1.42518745452579       -3.25742249855485       -0.81699653341556
H           -2.42171185130428       -2.68301395730968        0.56100673702092
H            1.45219445323449       -2.92828718455304        0.02545964154119
25
 energy: 40.393502757872 xtb: 6.6.1 (8d0f1dd)
C            3.26742318950373        1.17794260638089        0.09822339246842
N            2.28345569951256        0.12786856033271        0.06909184249772
C            2.58932453526300       -1.20616266272495        0.08747049180249
N            1.41245818199166       -1.92190183723665        0.00573512654335
C            0.33819014498960       -1.06423460461766       -0.04402330782704
C            0.89213062428930        0.20814702170818        0.01337375104071
C            0.05670185651667        1.34498846729716       -0.03148358487102
O            0.47998367213108        2.49994466123878        0.06129154104283
N           -1.37523854872662        0.99451362421362       -0.17137457479886
C           -2.16615934542241        2.18869170746112        0.09269813838306
C           -2.11264661690446       -0.25320575631833       -0.64566319390934
O           -3.23048757125027       -0.31760135440336       -1.12987304900070
N           -1.03569200387632       -1.31200595855228       -0.14093441219821
C           -1.42195006301572       -2.68430739816563        0.12009935885971
H            3.76236088349763        1.23430458304316        1.07464350135407
H            4.04169681500577        0.99933613577587       -0.65575187282073
H            2.77978203602684        2.12908695237656       -0.10002765624295
H            3.58816690034851       -1.58888575795841        0.01701617648791
H           -1.53730806959424        3.08171445582823        0.19745353508806
H           -2.84246764846232        2.34079365169573       -0.73270902931645
H           -2.71288501367452        2.06741085981735        1.03059871549591
H           -0.73903701195901       -3.19614111451501        0.81395243074825
H           -1.45008198965470       -3.25797386483241       -0.81109833022036
H           -2.40715357180967       -2.67504548726433        0.58250621355064
H            1.45164758321019       -2.92824888840846        0.02581869198981
25
 energy: 37.838065297355 xtb: 6.6.1 (8d0f1dd)
C            3.26528034184933        1.17855009608324        0.09917002675771
N            2.28237634916209        0.12826019884762        0.06923295554303
C            2.58960289181254       -1.20585694564583        0.09479053044735
N            1.41177918899091       -1.92269228820538        0.00459735883105
C            0.33853542829472       -1.06333836591535       -0.04774090789027
C            0.89061710087670        0.20891961355949        0.00769609827507
C            0.05472221508252        1.34320961367143       -0.03244878595818
O            0.47780176433999        2.50064610527393        0.06946354614519
N           -1.36980265485289        0.99720280915650       -0.17740608588592
C           -2.16707708191963        2.18880084173656        0.09089683221238
C           -2.10318492021382       -0.25091710124039       -0.64687960374156
O           -3.21354592997668       -0.31682333396832       -1.12077788102926
N           -1.03045680143411       -1.31460245627247       -0.15146893013405
C           -1.42387287050151       -2.68481149626629        0.11966180069224
H            3.75858126019692        1.23486916191888        1.07650439610799
H            4.04059375480082        0.99942269284668       -0.65352691771577
H            2.77616987859543        2.12849305424290       -0.09973039965153
H            3.58645964211448       -1.59145265988017        0.01742358755835
H           -1.53948577311292        3.08380400471397        0.19612421095674
H           -2.84471400477903        2.33828065814359       -0.73503995676667
H           -2.71393840323737        2.06419247892146        1.02835705590718
H           -0.72987829542760       -3.19829867192291        0.80147826811361
H           -1.47037634776212       -3.25790853407663       -0.81098163707751
H           -2.40107891872242       -2.67050967617568        0.59934505389668
H            1.44710685375992       -2.92841119737495        0.02829328055349
25
 energy: 37.363972446949 xtb: 6.6.1 (8d0f1dd)
C            3.26610881521183        1.17971886992044        0.09820500059162
N            2.28363508343578        0.12988008240816        0.06890578346949
C            2.59230613095322       -1.20781444762930        0.09905391670398
N            1.41106821281741       -1.92292578993378        0.00695938522257
C            0.33942897231432       -1.06266267335903       -0.04441429409268
C            0.89073193925765        0.20981811107860        0.00880495506105
C            0.05329063948301        1.34108407283179       -0.02625421166163
O            0.47582994585282        2.50079768759827        0.07374563212966
N           -1.36867989865643        0.99706191985565       -0.17576293023847
C           -2.16801536612413        2.18911732332592        0.08999464575921
C           -2.10007816521047       -0.24996059187881       -0.64704703452286
O           -3.21011179761381       -0.31744452668108       -1.12365891515607
N           -1.03008974627847       -1.31492147372223       -0.15576391420553
C           -1.42554788183099       -2.68462438189676        0.11875273299625
H            3.76085942528178        1.23672558199596        1.07498747882526
H            4.04098909162366        1.00137500624829       -0.65526969328739
H            2.77585628740892        2.12941211872779       -0.09995382034839
H            3.58763186616011       -1.59476625820186        0.01277019625375
H           -1.54101902912560        3.08470272111142        0.19484326978532
H           -2.84312633924544        2.33261393548733       -0.73893384500426
H           -2.71589875847785        2.06453976705442        1.02677434924781
H           -0.72654852475241       -3.20100426624012        0.79533714135705
H           -1.47956310044394       -3.25482454955964       -0.81242775023996
H           -2.40033930311239       -2.66815193094360        0.60679212729155
H            1.44349616900772       -2.92871770542595        0.03059369021003
25
 energy: 36.829060958981 xtb: 6.6.1 (8d0f1dd)
C            3.26734280717434        1.18084093283497        0.09722551501564
N            2.28521139151125        0.13128466349896        0.06906145839748
C            2.59518140517145       -1.20969456888400        0.10491770238887
N            1.41088291993574       -1.92281073576883        0.01021878745133
C            0.34073600127448       -1.06235694102922       -0.03972564593838
C            0.89168367184308        0.21026203355965        0.01082900549228
C            0.05134205983926        1.33890139669459       -0.02071068682050
O            0.47311058631856        2.50017299577883        0.07652928968962
N           -1.36824038994882        0.99609796019817       -0.17417556886653
C           -2.16930335004949        2.18922700499046        0.08962129195377
C           -2.09651577124020       -0.24942507713521       -0.64799372152787
O           -3.20680789330813       -0.31889736803215       -1.12485039557687
N           -1.02995716600807       -1.31516077870385       -0.16064728903013
C           -1.42701006807962       -2.68415846359389        0.11813634493852
H            3.76440710800927        1.23874844492679        1.07297025967744
H            4.04129032413799        1.00368441496335       -0.65770910188467
H            2.77629817438454        2.13066225013363       -0.09996155578405
H            3.58891565217262       -1.59708018398230        0.00410407078190
H           -1.54239434741370        3.08468852956644        0.19440006223455
H           -2.84296048858371        2.32833977186834       -0.74238867537294
H           -2.71733892514149        2.06521008596824        1.02641673957161
H           -0.73197040053896       -3.20176452625954        0.79173919500607
H           -1.48551215502136       -3.25404002966910       -0.80972427335520
H           -2.39707696032660       -2.66474490545238        0.60558757698228
H            1.44090048182384       -2.92895830430006        0.03316351072313
25
 energy: 36.641131340863 xtb: 6.6.1 (8d0f1dd)
C            3.26754148409010        1.18080189072069        0.09839967469275
N            2.28539495712003        0.13136524747930        0.06999478576722
C            2.59550843683600       -1.21000471565639        0.10858742813925
N            1.41094907222128       -1.92264760255882        0.01031233769769
C            0.34100137928477       -1.06249585594859       -0.03996375541480
C            0.89221676920801        0.21004126520491        0.01122547949484
C            0.05096710669826        1.33861955420633       -0.02077491440384
O            0.47289915563078        2.49969786702154        0.07567664667793
N           -1.36849626706745        0.99549745899833       -0.17345759478149
C           -2.16953727619995        2.18890812151705        0.08885601260613
C           -2.09587095415912       -0.24939233453363       -0.64716979062280
O           -3.20669507901386       -0.31891865072695       -1.12537067697588
N           -1.03029577545509       -1.31500143685723       -0.16336022019600
C           -1.42744582319228       -2.68357512788526        0.11717797972400
H            3.76481312075795        1.23864718553747        1.07401700286239
H            4.04141493249111        1.00388478232996       -0.65680163545763
H            2.77670035978600        2.13080728207883       -0.09879041331313
H            3.58872433284636       -1.59657592971299        0.00040295953929
H           -1.54273402628311        3.08416307274277        0.19285232493336
H           -2.84309830697512        2.32721897640523       -0.74344482541612
H           -2.71745198488703        2.06571465637781        1.02568132797817
H           -0.72599656531781       -3.20163637321488        0.78784770408485
H           -1.49270638697756       -3.25320706875760       -0.81217751796135
H           -2.39672030822424       -2.66394026239476        0.61379286499892
H            1.44113231471827       -2.92894340020122        0.03352071149361
25
 energy: 36.494003860289 xtb: 6.6.1 (8d0f1dd)
C            3.26724513582527        1.18045592078572        0.09923821952258
N            2.28494267143745        0.13105618966440        0.07071304626504
C            2.59483753682511       -1.20984716523332        0.11165717284056
N            1.41093020759072       -1.92251245283437        0.00981557549640
C            0.34088883470664       -1.06265885688593       -0.04109168065907
C            0.89236892304414        0.20979029551960        0.01092534908743
C            0.05116101115292        1.33905753179603       -0.02246149973311
O            0.47328433152968        2.49952027258387        0.07457340452874
N           -1.36882089218745        0.99504340465273       -0.17346023595788
C           -2.16941014906576        2.18862559665935        0.08868922061630
C           -2.09542060552357       -0.24958551465209       -0.64713443012731
O           -3.20691659463709       -0.31891159716508       -1.12372503880235
N           -1.03059720955136       -1.31474743746933       -0.16449413060505
C           -1.42744156308144       -2.68307673787383        0.11702553906780
H            3.76428515253852        1.23808580007155        1.07488609248784
H            4.04119253927167        1.00328625663786       -0.65590881080932
H            2.77684048009171        2.13059807823163       -0.09824805155214
H            3.58785370035139       -1.59530366213165       -0.00258300327423
H           -1.54250076843686        3.08370169558319        0.19238705439378
H           -2.84317387608900        2.32753163971847       -0.74308459723525
H           -2.71724433451015        2.06562270306988        1.02552064499962
H           -0.72459197687005       -3.20074144219315        0.78697829966951
H           -1.49347300024005       -3.25321873943500       -0.81148039276445
H           -2.39588598798540       -2.66391573840497        0.61497587101147
H            1.44186110174923       -2.92882743852365        0.03332027768043
25
 energy: 35.984237859469 xtb: 6.6.1 (8d0f1dd)
C            3.26672154065827        1.18002561539952        0.10087529560977
N            2.28419283003795        0.13079445691834        0.07236383233666
C            2.59392157306552       -1.20990537154011        0.12208142735822
N            1.41076946209659       -1.92223122719299        0.00927091646062
C            0.34102404449444       -1.06272377636702       -0.04349781029005
C            0.89274159130881        0.20960002143066        0.01003709179957
C            0.05168549399787        1.33977314955298       -0.02513824009760
O            0.47371641151606        2.49941150924529        0.07275371715751
N           -1.36924315917169        0.99363522488491       -0.17331497480152
C           -2.16931354352887        2.18772680041692        0.08813749759581
C           -2.09297268617001       -0.25025867483058       -0.64764495686340
O           -3.20652366449108       -0.31964279927434       -1.11981329516942
N           -1.03086281534076       -1.31418584857273       -0.16802177501577
C           -1.42735014711866       -2.68194075688913        0.11649560011193
H            3.76342188266387        1.23744894554515        1.07652526435710
H            4.04078450110626        1.00225874522083       -0.65418366868452
H            2.77698482401621        2.13028390030985       -0.09729140321877
H            3.58597014561423       -1.59279430957523       -0.01238075026002
H           -1.54204734231043        3.08249144124900        0.19179732005179
H           -2.84346215049056        2.32787025727811       -0.74306401684864
H           -2.71715071984242        2.06499061337931        1.02497886410915
H           -0.72326636432647       -3.19869328020350        0.78442281567289
H           -1.49733499013579       -3.25402011422292       -0.81014367120386
H           -2.39298181438439       -2.66236278203537        0.61803155333519
H            1.44278976467131       -2.92852313795508        0.03375726264472
25
 energy: 35.730552001573 xtb: 6.6.1 (8d0f1dd)
C            3.26661918235028        1.17993779563510        0.10101678439194
N            2.28403509584444        0.13077744224835        0.07277099932879
C            2.59373423411123       -1.21025741349772        0.12840670999791
N            1.41026433661781       -1.92226012129589        0.00951343109277
C            0.34096594879234       -1.06242673038685       -0.04457996035864
C            0.89263655603903        0.20984382966582        0.00912032816096
C            0.05215733010829        1.34001438942876       -0.02533879684321
O            0.47353679640206        2.49977910295553        0.07250677762968
N           -1.36912881013137        0.99328944235771       -0.17338781688020
C           -2.16936876262648        2.18729372977713        0.08793607764572
C           -2.09146861032267       -0.25063066244297       -0.64799088610480
O           -3.20596664123659       -0.32018824571715       -1.11841742399029
N           -1.03080343428820       -1.31392534913439       -0.16872124061012
C           -1.42750918193080       -2.68157725093894        0.11631423111026
H            3.76327251270672        1.23760942678786        1.07666993310403
H            4.04073727959869        1.00181681173888       -0.65387393491899
H            2.77693741791737        2.13010257373084       -0.09745658312607
H            3.58472737384697       -1.59245533624378       -0.01753093197617
H           -1.54193179906957        3.08204912250638        0.19207382231080
H           -2.84336662173971        2.32789438737995       -0.74327080783937
H           -2.71748757283008        2.06442054283661        1.02466857643204
H           -0.72253549879308       -3.19847416743823        0.78313792181436
H           -1.49775583833593       -3.25341492912430       -0.80970237929612
H           -2.39213497824921       -2.66176832547643        0.61831921713253
H            1.44204835315475       -2.92842146318038        0.03484984793950
25
 energy: 35.677200349827 xtb: 6.6.1 (8d0f1dd)
C            3.26675312450961        1.18004810514524        0.10069561364235
N            2.28430837277729        0.13079307675378        0.07272048733309
C            2.59401060782155       -1.21044522368882        0.13228289348441
N            1.40995587997052       -1.92231104752037        0.01014456465603
C            0.34098539063499       -1.06202839013922       -0.04519351798188
C            0.89260430040958        0.21017261920174        0.00819551588687
C            0.05268726026968        1.34016397270773       -0.02504998687277
O            0.47317879296824        2.50026157582871        0.07283149518792
N           -1.36883851273450        0.99363509173766       -0.17387182639151
C           -2.16942067341429        2.18707816128525        0.08802348870439
C           -2.09094610544140       -0.25098591457321       -0.64824760038798
O           -3.20550803268255       -0.32065999307452       -1.11861075389345
N           -1.03040847543347       -1.31373655501785       -0.16782704648967
C           -1.42730867282374       -2.68175119510334        0.11617195773151
H            3.76343937326613        1.23801761317205        1.07636445928559
H            4.04087129002498        1.00178304084591       -0.65406953483818
H            2.77686380166485        2.13005601384783       -0.09786047161588
H            3.58393301715640       -1.59280499024516       -0.02048861609485
H           -1.54210470933807        3.08197181731942        0.19270036350179
H           -2.84321029100561        2.32804504946506       -0.74315894049261
H           -2.71777107648911        2.06378941790444        1.02464294340406
H           -0.72333122888818       -3.19857004628684        0.78321465372169
H           -1.49731225936492       -3.25354573981743       -0.81064585134985
H           -2.39233246318694       -2.66159830550366        0.61793843146926
H            1.44111595726525       -2.92834955207253        0.03613117454704
25
 energy: 35.736658618383 xtb: 6.6.1 (8d0f1dd)
C            3.26685187821844        1.18006641246465        0.10044462660084
N            2.28452819638684        0.13070470583176        0.07269647871934
C            2.59429583978502       -1.21061498191442        0.13460957953592
N            1.40972179701309       -1.92235072059518        0.01111344871327
C            0.34089029508980       -1.06192921109408       -0.04491563667867
C            0.89273104749972        0.21016997928146        0.00785477941223
C            0.05281182601640        1.34008584945986       -0.02492886182240
O            0.47286514135562        2.50026826636599        0.07300675409030
N           -1.36869335527187        0.99413981470305       -0.17435360942116
C           -2.16941943757446        2.18722715674243        0.08809128968382
C           -2.09133520782506       -0.25114236209453       -0.64806985545828
O           -3.20549007677941       -0.32072878722048       -1.11926039401917
N           -1.03051011974101       -1.31355624316041       -0.16672056221792
C           -1.42742755480492       -2.68193559509808        0.11615269067005
H            3.76379100253988        1.23818228142874        1.07600554614675
H            4.04089879685598        1.00191520351460       -0.65443578220393
H            2.77686606479922        2.13007384612194       -0.09802172921554
H            3.58352234046890       -1.59326224607548       -0.02302739996172
H           -1.54222170410185        3.08216236287040        0.19293294570955
H           -2.84333567367935        2.32828808545913       -0.74307997452600
H           -2.71766884569993        2.06373266913014        1.02476526203715
H           -0.72303051621308       -3.19896856100712        0.78356250599711
H           -1.49568285806313       -3.25271632066287       -0.81111546618957
H           -2.39315723488536       -2.66237979878539        0.61655262238827
H            1.44041302654680       -2.92840320349427        0.03717463815710
25
 energy: 35.787450772543 xtb: 6.6.1 (8d0f1dd)
C            3.26678333004356        1.18009428777423        0.10049485846946
N            2.28453511297865        0.13067170525996        0.07271414533425
C            2.59448398935139       -1.21057137849103        0.13637494059434
N            1.40980418599852       -1.92231485024402        0.01165387070565
C            0.34098104222570       -1.06201120833310       -0.04481388957512
C            0.89299923105906        0.21002184457036        0.00769949101176
C            0.05277439338359        1.34008092107441       -0.02523000086941
O            0.47293249691102        2.50005988034886        0.07313144002140
N           -1.36855278369387        0.99445161754774       -0.17456334701646
C           -2.16928781150834        2.18738438032507        0.08818420427295
C           -2.09173732085693       -0.25133782768727       -0.64788224261979
O           -3.20551966803116       -0.32079020890150       -1.11955170315096
N           -1.03059265765891       -1.31339465790482       -0.16639595733236
C           -1.42726173925650       -2.68203953920598        0.11601140080013
H            3.76387714020258        1.23808815937196        1.07595665082007
H            4.04078512763735        1.00206873167131       -0.65454450511605
H            2.77683894586407        2.13014889162248       -0.09789932455876
H            3.58323007845989       -1.59306144464290       -0.02527267500086
H           -1.54230155851987        3.08240086945948        0.19280915272969
H           -2.84334388744029        2.32820759290160       -0.74286713287104
H           -2.71737661812375        2.06378488465285        1.02488992990296
H           -0.72383841475170       -3.19874062950512        0.78428000392165
H           -1.49487864525509       -3.25302398490869       -0.81146311671050
H           -2.39360846661662       -2.66272652975565        0.61576537726484
H            1.44048916553393       -2.92842290482831        0.03755232511948
