  25
        -42.16189095
 C          3.1141805634        1.2420897056       -0.1855795650
 N          2.2772895119        0.0752590202       -0.0831912141
 C          2.6769451908       -1.1866625437       -0.0743369143
 N          1.6131595921       -2.0075555207        0.0362047464
 C          0.4853744183       -1.2280281425        0.0943025003
 C          0.9098843287        0.0876366332        0.0296107716
 C         -0.0352300869        1.1974605231        0.0783423245
 O          0.2555742594        2.3671339058        0.0168703524
 N         -1.3390736429        0.7064286777        0.2216446436
 C         -2.4359873226        1.7092528072        0.2382018277
 C         -1.7544001781       -0.5697872340        0.2709744595
 O         -3.2044970481        1.6162614992       -0.8934981353
 N         -0.8232336902       -1.5484268426        0.2012573629
 C         -1.2542795639       -2.9308272465        0.2319174643
 H          3.6416303017        1.4133785425        0.7541937573
 H          3.8451596979        1.1106463006       -0.9820195960
 H          2.4853407947        2.1078290865       -0.3950418074
 H          3.6965139705       -1.5161604853       -0.1434867064
 H         -1.9707691792        2.6985970376        0.2468064658
 H         -3.7521567207        0.8168377744       -0.8676298151
 H         -3.0054002124        1.5433821119        1.1636689158
 H         -0.8754703947       -3.4348355664        1.1216661774
 H         -0.9141973634       -3.4550232091       -0.6616065256
 H         -2.3412285780       -2.9385578436        0.2569433937
 H          1.6503175143       -3.0178206781        0.0538134970
