25
 energy: -42.079971941439 gnorm: 0.005434024927 xtb: 6.6.1 (8d0f1dd)
C            3.23044744954922        1.19651648977866       -0.00259166175830
N            2.27987073064013        0.11527383480164        0.03118554455954
C            2.55007259013996       -1.17795494996788        0.05765269074983
N            1.41035755247072       -1.89132465742013        0.10916294162910
C            0.35936819060979       -1.00472617867832        0.11116502345891
C            0.91591074068492        0.26858483482273        0.06228083339302
C            0.10341636334449        1.46787752125923        0.02975843863503
O            0.51904407206202        2.60175932155496       -0.00409149575136
N           -1.25747148597001        1.15085705653459        0.03541274856162
C           -2.19888202348696        2.26766873975877       -0.01282866111901
C           -1.85180902009801       -0.07966588459699        0.06679630335592
O           -3.03349593250112       -0.25478448615842        0.04215568933502
N           -0.97044407060726       -1.24341653234608        0.14556873413938
C           -1.54541240599982       -2.45524487311814        0.23573475249551
H            3.74631812336986        1.27435711964103        0.95559131260597
H            3.96798959104746        1.02810963961193       -0.78624396040390
H            2.69715685186517        2.12844354734567       -0.18975474309488
H            3.53433616748766       -1.60729094446558        0.03995053592498
H           -1.62578810440051        3.19110980645078       -0.00328940584004
H           -2.79864255076987        2.20359382433420       -0.91937743003643
H           -2.86307921343936        2.22514767749357        0.84864352176861
H           -0.94952214073792       -3.34127213549264        0.33806991207638
H           -1.79180510269771       -4.85429782814332       -1.51491301698950
H           -2.61804991271265       -2.49068512379660        0.23498079674190
H            1.35054505424978       -2.90039727760353        0.12015221346264
