25
 energy: 0.000000000000 xtb: 6.6.1 (8d0f1dd)
C            3.23720132972391        1.16630909158653        0.08434468864950
N            2.29877796055224        0.07527476373246        0.03981602671198
C            2.58028186251803       -1.21425391179017        0.03006175752192
N            1.43813944744728       -1.93419254010258        0.00098261751768
C            0.39035684826767       -1.05887462812143       -0.00790371763344
C            0.93510047688824        0.21347817468824        0.01709077332874
C            0.09450143016486        1.40504290868848       -0.00410946993748
O            0.49712746915594        2.54126690785742       -0.00342325656480
N           -1.25076628431515        1.06271869620815       -0.03085477937476
C           -2.21907191394203        2.15522079838987       -0.05001256521996
C           -1.81739470187490       -0.20012724136556       -0.04692818139228
O           -2.99983858926755       -0.37846413507442       -0.07008877579474
N           -0.92618577614240       -1.30210203518959       -0.03682761236648
C           -1.46982251276835       -2.64643077634382       -0.06029819901142
H            3.71247229913541        1.21471443890471        1.06488839270555
H            4.00791460421487        1.03430799217987       -0.67357688121503
H            2.69909982127087        2.09770098766290       -0.09130154035862
H            3.56654087521359       -1.63682977417947        0.04233139674524
H           -1.67107945562430        3.09322822573871       -0.02552706696334
H           -2.82428927394145        2.09428605349656       -0.95318074103337
H           -2.87644002486466        2.07745706351925        0.81450059976605
H           -1.17061985538665       -3.19584861009707        0.83242224714061
H           -1.14560246782873       -3.17511580834413       -0.95688266944647
H           -2.55549768731684       -2.55659960601237       -0.07459039105944
H            1.38130842369251       -2.94313824728853       -0.01389874052104
25
 energy: -3.820775816147 xtb: 6.6.1 (8d0f1dd)
C            3.27017177241615        1.17541816628992        0.05712396748031
N            2.31653844054873        0.09056684168802        0.03228469936794
C            2.59422667934016       -1.24118037742252        0.04677136401582
N            1.41893794331791       -1.94572575021907        0.02237461321702
C            0.39046931455138       -1.05978255242748        0.00473847985640
C            0.93187482007556        0.21793419671389        0.02916086757439
C            0.09779651931059        1.38963340128969        0.00905640014864
O            0.49361043204029        2.55504821096867        0.01224446555574
N           -1.26549533837849        1.04694286623447       -0.02857784480383
C           -2.22667623398185        2.14357244422823       -0.05557622375480
C           -1.83028131032905       -0.20342636336641       -0.05176305814604
O           -3.02682139949906       -0.38446083940321       -0.08699625230795
N           -0.94170298879168       -1.30415834632762       -0.03387485794798
C           -1.48520823014938       -2.64527422753901       -0.06506547972221
H            3.80305117081270        1.16373419177002        1.00518300218078
H            4.06230546484242        1.20312948735695       -0.74046243574303
H            2.69633927623477        2.10089536817076       -0.01609154135529
H            3.56745423548688       -1.67426020181304        0.08001660581825
H           -1.66812185993542        3.07666074893491       -0.03294413560139
H           -2.82988256268233        2.08648697018564       -0.96135800090008
H           -2.88823218846521        2.07687929298634        0.80765453951261
H           -1.19414884446419       -3.20019765663859        0.82877260791452
H           -1.15189023907333       -3.17686736217464       -0.95863356201598
H           -2.57056769583322       -2.55258432100662       -0.08994563386456
H            1.34846712757813       -2.94995539973528        0.01294132571529
25
 energy: 2.767899194507 xtb: 6.6.1 (8d0f1dd)
C            3.30977095384970        1.18519302045946        0.02121392295400
N            2.34050114906569        0.10510467642100        0.01533366938501
C            2.60255607378630       -1.26843514552930        0.07425462875046
N            1.39519522197812       -1.95102845550313        0.05670201915455
C            0.39035498796589       -1.05801639519594        0.02431104211548
C            0.93085875815937        0.22538097295818        0.03682046976082
C            0.10290092787836        1.36707770667569        0.02398866399558
O            0.47576241578824        2.55421572059100        0.04004659764097
N           -1.28448899587837        1.02947099867206       -0.02666365733881
C           -2.23655652459277        2.13083419790862       -0.06412884507842
C           -1.83995681025336       -0.20754910774939       -0.06049694867452
O           -3.04306033324343       -0.39406662667873       -0.11492945850699
N           -0.95771956918961       -1.30420246257886       -0.02811100036069
C           -1.50349973155891       -2.64253061165730       -0.07218844178525
H            3.95728291212278        1.06359380538702        0.90513438662794
H            4.09881473649145        1.44036361703216       -0.84958589296021
H            2.69322555283958        2.10685099879106        0.11457359311987
H            3.55923566166390       -1.71795537769281        0.14850298284061
H           -1.66751981140846        3.05859909962567       -0.04522591663291
H           -2.83763518590190        2.07377666891040       -0.97229132103018
H           -2.90433358768709        2.07683519356221        0.79631232226584
H           -1.23167179001597       -3.20719621110243        0.82363155391261
H           -1.16030162640644       -3.17879164632967       -0.96138003659568
H           -2.58887971138679       -2.54548745107650       -0.11495541874824
H            1.31137863090612       -2.95300839715643        0.05616499738268
25
 energy: 11.119079728015 xtb: 6.6.1 (8d0f1dd)
C            3.33943982908498        1.19405786699436       -0.00691334264271
N            2.35515145809258        0.11588403985039       -0.00034915291656
C            2.60085572744258       -1.27642042063129        0.09474810934323
N            1.38383149698850       -1.94830770759124        0.08819947744643
C            0.38824356674981       -1.05517648123352        0.03813696314387
C            0.93145348091202        0.23210689248261        0.03387609738874
C            0.10054862542488        1.36052485807420        0.03625621969010
O            0.45207412296919        2.55374410933440        0.07171976121500
N           -1.29938392611438        1.02208128387065       -0.02304341881441
C           -2.24893220785606        2.12204691970572       -0.06879024999643
C           -1.84731886046198       -0.21318309879647       -0.06957615172629
O           -3.05037481355650       -0.40589132173545       -0.14064617862635
N           -0.96515040704880       -1.30495538578001       -0.02323710622460
C           -1.51577133431835       -2.64177472666414       -0.08071500183784
H            4.09231081038340        0.97293137922836        0.79421408003229
H            4.10125927309646        1.59567877486412       -0.92723005569914
H            2.72897706330227        2.10950950225461        0.22404698075112
H            3.54745586125325       -1.74110632335500        0.21917503749814
H           -1.67619550862112        3.04706625579237       -0.05314199829314
H           -2.84753160885113        2.05937087091746       -0.97857336412427
H           -2.92044036930391        2.07373517898942        0.78929546523046
H           -1.26629747774271       -3.21446516124647        0.81717462868115
H           -1.16483218600205       -3.17892530809912       -0.96672277413524
H           -2.60106575592952       -2.53839519261239       -0.14173552340088
H            1.29390744507895       -2.95110801586954        0.10086541021183
25
 energy: 14.705449959728 xtb: 6.6.1 (8d0f1dd)
C            3.36031705926848        1.19596214688483       -0.02409160371267
N            2.36169316929493        0.12209470247151       -0.01211150495789
C            2.59494850236525       -1.27152356615778        0.10440783331660
N            1.38181587906762       -1.94137912163845        0.10990277058596
C            0.38494185790595       -1.05156129357625        0.04351912890001
C            0.93252901031200        0.23673357644303        0.02152282461242
C            0.09496008146620        1.36394027499018        0.04457626177205
O            0.43138132387118        2.55276679508816        0.09990827017587
N           -1.30841703804455        1.02075348141125       -0.01735907055529
C           -2.26037019103033        2.11650551462759       -0.06746900551045
C           -1.85237876192531       -0.21819178231312       -0.07534706536582
O           -3.05196640785813       -0.41439757568151       -0.15863545000671
N           -0.96693478112318       -1.30583302265718       -0.01993571370877
C           -1.52219528018954       -2.64223791830926       -0.08863073466802
H            4.15722423224459        0.92170993698263        0.69756161606926
H            4.10498187504508        1.67263153708013       -0.95518522493270
H            2.79005516761286        2.09430502028450        0.27830150930222
H            3.53403722006008       -1.74517367183844        0.27903221192130
H           -1.68975767074012        3.04191653393111       -0.05445501123964
H           -2.85833031322527        2.04703774277551       -0.97724973713950
H           -2.93289209421130        2.06949559590084        0.78969063275694
H           -1.29116243129134       -3.22004545358619        0.81034437190554
H           -1.16575424994709       -3.17800323714046       -0.97257368805125
H           -2.60696565420886       -2.53284276559365       -0.16346577516516
H            1.29045380025316       -2.94563466163494        0.13477606589022
25
 energy: 14.678303284064 xtb: 6.6.1 (8d0f1dd)
C            3.36805606956523        1.19414191211572       -0.02774486719276
N            2.35977136006433        0.12514899983382       -0.01721618246976
C            2.58889311647062       -1.25681707359304        0.09665145594031
N            1.38678876032338       -1.93199468026669        0.12131478165826
C            0.38130549855793       -1.04749198614310        0.04372134113213
C            0.93197249553967        0.23941284905259        0.00736469498798
C            0.09045798425559        1.37267504265160        0.04645684550538
O            0.41992887733059        2.55274070261730        0.11474765101844
N           -1.30992383587311        1.02241805418219       -0.01519862894795
C           -2.26657360416946        2.11417597372296       -0.07057336109390
C           -1.85452002712573       -0.22114254365688       -0.07768702023061
O           -3.05017876921881       -0.41636516750598       -0.17027510990477
N           -0.96501117217413       -1.30651022600264       -0.01578602153158
C           -1.52186317792515       -2.64362840287367       -0.08927435912360
H            4.19216927552751        0.85978484919022        0.61437455232556
H            4.07873064200256        1.70410243106419       -0.97120740008606
H            2.83613608202898        2.07545941783159        0.35385042864889
H            3.52119638463044       -1.72870308249484        0.31567958383041
H           -1.70197969492462        3.04279731942329       -0.06098907894101
H           -2.86470623572693        2.03740218114115       -0.97964375413174
H           -2.93896745270416        2.06849201761432        0.78670264206341
H           -1.30089931051170       -3.22022558151840        0.81107978685563
H           -1.16066441620663       -3.17878115315781       -0.97056428902173
H           -2.60560107709944       -2.53104788106755       -0.17185265103866
H            1.29769653233537       -2.93701518341623        0.15310287194221
25
 energy: 12.645164632412 xtb: 6.6.1 (8d0f1dd)
C            3.36576725685387        1.19252246708704       -0.02201871756953
N            2.35289148202171        0.12837332958935       -0.01751951880820
C            2.58619781831145       -1.24311976060966        0.08412653625009
N            1.39072031204966       -1.92423251179040        0.12283860474446
C            0.37879088192073       -1.04348933200817        0.04143785364677
C            0.92881187647365        0.24215715656915       -0.00251236524881
C            0.08770531354198        1.37889532477748        0.04223132470006
O            0.41627107325108        2.55592061230140        0.12022670056534
N           -1.30814873471183        1.02298732364938       -0.01795649615636
C           -2.26800400705265        2.11321421554208       -0.07413358527832
C           -1.85480336619790       -0.22180695463184       -0.07877186154899
O           -3.04856367539759       -0.41485960921574       -0.17412135733251
N           -0.96340375538816       -1.30629223745164       -0.01334740961050
C           -1.51824728031038       -2.64477067604975       -0.08580987522115
H            4.20504832282507        0.81529134036841        0.56276013920616
H            4.04292072003785        1.70208050196550       -0.96794467161595
H            2.86598359462765        2.05876152285436        0.40567860408416
H            3.51459529546160       -1.70749971170576        0.33372074404179
H           -1.70722755435261        3.04439298969703       -0.06649888987454
H           -2.86676306167301        2.03353875777974       -0.98235543565365
H           -2.93930557614466        2.06807206360285        0.78411071794489
H           -1.29759750973257       -3.21824393584798        0.81569112963346
H           -1.15391910097811       -3.18014652921491       -0.96525940529304
H           -2.60141519055686       -2.53353802577035       -0.17032844832512
H            1.30390917009232       -2.92917953274349        0.15278959491399
25
 energy: 10.959728398846 xtb: 6.6.1 (8d0f1dd)
C            3.36336845887990        1.19174542939973       -0.01837673051472
N            2.34789128987454        0.13155146922126       -0.02105666146652
C            2.58749553384138       -1.23760241776330        0.07115059082878
N            1.39191593403588       -1.92109468418948        0.12160131365562
C            0.37872010234285       -1.04109676511512        0.04029211689965
C            0.92627518182658        0.24454801187940       -0.00625721360477
C            0.08633586218388        1.38111862529467        0.03910363023465
O            0.41682512579607        2.55911214430509        0.11784568441401
N           -1.30707132442935        1.02320393635215       -0.02206401847692
C           -2.26795005751921        2.11342189775311       -0.07835585757606
C           -1.85431854474200       -0.22106150975556       -0.07901137624259
O           -3.04824316908007       -0.41384045548307       -0.17418650872142
N           -0.96259801988295       -1.30556733994268       -0.01149558077625
C           -1.51497779534735       -2.64493454961154       -0.08138361340619
H            4.21068650893209        0.78395876317832        0.53337593404006
H            4.01192329446925        1.70225583450393       -0.96510266973266
H            2.87865731232695        2.05111261266890        0.45152605731041
H            3.51352651607558       -1.69527616807774        0.34276252403252
H           -1.70776289342772        3.04525512577674       -0.07103628855148
H           -2.86668443207690        2.03330506311363       -0.98639190459987
H           -2.93850854944035        2.06829517238578        0.78046954502820
H           -1.29132487156181       -3.21629592553317        0.82104700847615
H           -1.14941464190123       -3.18110191784716       -0.96001053497687
H           -2.59816751935738       -2.53613981263249       -0.16541915687561
H            1.30561500315364       -2.92584375113737        0.14800762279639
25
 energy: 8.892421881213 xtb: 6.6.1 (8d0f1dd)
C            3.36123852125830        1.19118227619640       -0.01330390967231
N            2.34345453811907        0.13414162180250       -0.02449376624104
C            2.59092080382908       -1.23614096090515        0.05780306812697
N            1.39233326585537       -1.92013868413536        0.11866441712569
C            0.38011362306068       -1.03960157403575        0.03972995122382
C            0.92459442709174        0.24629906470250       -0.00621781180466
C            0.08500712879671        1.38151538193282        0.03727056511521
O            0.41935273474297        2.56120257005043        0.11224200897354
N           -1.30616158903793        1.02372092065739       -0.02562759179284
C           -2.26732728059847        2.11442267926013       -0.08009253659430
C           -1.85314984033093       -0.21961300837178       -0.07844616187563
O           -3.04778113565852       -0.41333674308028       -0.17106630930522
N           -0.96156633029231       -1.30445847446894       -0.01053219748053
C           -1.51189021663023       -2.64431698326948       -0.07836122878307
H            4.20181557419778        0.77689766059854        0.51829284619203
H            3.98631473610729        1.69535674887957       -0.94808602432633
H            2.88994575594465        2.03715320156129        0.46508714215673
H            3.51445379481970       -1.68636307150745        0.34947616478316
H           -1.70617954833668        3.04590015109391       -0.07164073410702
H           -2.86587133335244        2.03569711418590       -0.98815800595531
H           -2.93721075768096        2.06800480198736        0.77909803084071
H           -1.28388519067467       -3.21502640186033        0.82422872880201
H           -1.14660372449683       -3.18066685491416       -0.95731348055786
H           -2.59540478654014       -2.53810608519584       -0.16038226678272
H            1.30570113477907       -2.92469656242013        0.13886301413350
25
 energy: 8.665445034830 xtb: 6.6.1 (8d0f1dd)
C            3.36180553356416        1.19227086399306       -0.01263758634230
N            2.34247965054663        0.13553187958376       -0.02695674599176
C            2.59284860413940       -1.23851795403132        0.05121648983700
N            1.39153946573546       -1.92129279991400        0.11841103783929
C            0.38101574781197       -1.04002246021750        0.04147095936774
C            0.92404203889694        0.24644694218125       -0.00265671058310
C            0.08396290275102        1.38059001775155        0.03749212213732
O            0.41980974590912        2.56115992660983        0.10709569436807
N           -1.30741137586296        1.02411716722738       -0.02687764974410
C           -2.26785693414172        2.11511878861076       -0.08221257540378
C           -1.85313974971080       -0.21918457874217       -0.07824196813691
O           -3.04842556669989       -0.41436101060466       -0.16969068855051
N           -0.96168294787252       -1.30421109268054       -0.00961408058226
C           -1.51157427785199       -2.64395367637694       -0.07718842977691
H            4.21428238706327        0.76640809903318        0.51362399865406
H            3.97466131611072        1.70644947966742       -0.94891764740113
H            2.89034183603971        2.03679852319774        0.48027836586947
H            3.51475343000326       -1.68608514033593        0.35291584937121
H           -1.70559278101577        3.04591448681047       -0.07354425994085
H           -2.86552335170292        2.03642354545392       -0.99085187970198
H           -2.93829361604219        2.06873085768749        0.77648397303124
H           -1.28266944903897       -3.21478447286745        0.82537793146617
H           -1.14665852145220       -3.18047987413102       -0.95637327648389
H           -2.59529445458034       -2.53821444285894       -0.15856955705629
H            1.30479467237291       -2.92582428630328        0.13700054594868
25
 energy: 8.858661320927 xtb: 6.6.1 (8d0f1dd)
C            3.36375124897104        1.19191402929080       -0.01550216751270
N            2.34379150099234        0.13409035821820       -0.03019986816095
C            2.59426698203455       -1.24290274062800        0.04644803528756
N            1.39106735732137       -1.92366090510571        0.11777119947351
C            0.38200643438966       -1.04146722916347        0.04303119894738
C            0.92554666892994        0.24494200504079        0.00054468373393
C            0.08412022010789        1.37924265331277        0.03748347014555
O            0.42094333197089        2.55961565431866        0.10311697859308
N           -1.30761601037814        1.02465696051223       -0.02638192627238
C           -2.26754854806055        2.11570605213663       -0.08205593930619
C           -1.85267314944207       -0.21900271031616       -0.07754998022488
O           -3.04817659077195       -0.41494877377304       -0.16772410611693
N           -0.96142331540185       -1.30414017449582       -0.00921463964627
C           -1.51235824430512       -2.64340867906373       -0.07731060057578
H            4.21186998413271        0.77408416554498        0.51939666543500
H            3.97693982907099        1.71373466995708       -0.94764515184771
H            2.88567573951689        2.03759653149552        0.48033712394501
H            3.51479227602715       -1.68952825135092        0.35448527340965
H           -1.70476953527830        3.04605764755291       -0.07337555732303
H           -2.86487991744250        2.03710842341903       -0.99098338758534
H           -2.93858273429316        2.06930350495416        0.77613718556395
H           -1.28385409977577       -3.21504793000650        0.82476812697572
H           -1.14854349640813       -3.17973951348513       -0.95706582280897
H           -2.59619133464111       -2.53690744375266       -0.15812382627048
H            1.30405970770548       -2.92826951586850        0.13664694433578
25
 energy: 8.616437007889 xtb: 6.6.1 (8d0f1dd)
C            3.36469702206087        1.19252886220464       -0.01717481761826
N            2.34414379016344        0.13335984015387       -0.03252131730445
C            2.59556895808265       -1.24587868556516        0.03933782131217
N            1.39100583744125       -1.92507898426289        0.11689597513451
C            0.38268843666162       -1.04234113391064        0.04498271522909
C            0.92673940420219        0.24381569596088        0.00412022777466
C            0.08383009077209        1.37846911179755        0.03715325129567
O            0.42157662109917        2.55857859851206        0.10051488165497
N           -1.30753856348842        1.02514015055313       -0.02572470238822
C           -2.26731707446595        2.11600293319551       -0.08163173578201
C           -1.85231063350265       -0.21898257630267       -0.07685424569636
O           -3.04792148358268       -0.41528465719783       -0.16639617672352
N           -0.96103052718791       -1.30393708712633       -0.00867380729101
C           -1.51278162643438       -2.64296333287860       -0.07766049766448
H            4.21323694211116        0.77994938889757        0.52438573766533
H            3.97508880913317        1.71610830219208       -0.94306482311098
H            2.88334471096200        2.03630887605606        0.47443147288721
H            3.51380420330037       -1.68997755298905        0.35932138397285
H           -1.70445560826769        3.04620000875961       -0.07286386908081
H           -2.86438662711654        2.03751973241744       -0.99080130076556
H           -2.93882973162254        2.06938000273951        0.77614542164507
H           -1.28475637218925       -3.21540494187968        0.82387008324105
H           -1.14969459917237       -3.17883119896142       -0.95798391787494
H           -2.59669362669314       -2.53588982627758       -0.15816361703772
H            1.30420595270582       -2.92976273734401        0.13538976872017
25
 energy: 8.269734546399 xtb: 6.6.1 (8d0f1dd)
C            3.36507717865524        1.19255224022266       -0.01881740843406
N            2.34429837054675        0.13266346118790       -0.03479639691515
C            2.59623107237567       -1.24678629163933        0.03212300289519
N            1.39131695232411       -1.92520983252592        0.11622743338446
C            0.38282091208671       -1.04229368065557        0.04617540602278
C            0.92770696286539        0.24334363467986        0.00493929339816
C            0.08404226578152        1.37846131201381        0.03672567748863
O            0.42196009605566        2.55819553887023        0.10088363133654
N           -1.30662627378553        1.02524814772716       -0.02514786404022
C           -2.26677591004660        2.11582425056478       -0.08139401062157
C           -1.85192090996074       -0.21908979958063       -0.07658982397197
O           -3.04740685193479       -0.41475716707185       -0.16676115896132
N           -0.96057423913377       -1.30370236119049       -0.00790458607463
C           -1.51274637515397       -2.64278035264360       -0.07749192523706
H            4.21220463618621        0.78163521844085        0.52587383368035
H            3.97212163167893        1.71567637859305       -0.94110187167779
H            2.88239886418194        2.03463758745177        0.47325020905591
H            3.51177346659759       -1.68812973519975        0.36549365304068
H           -1.70454629838030        3.04638391738897       -0.07272961241495
H           -2.86393528874976        2.03711297155010       -0.99053333251686
H           -2.93840692621126        2.06913760789086        0.77631000456996
H           -1.28534394267643       -3.21548368451201        0.82385575683116
H           -1.14954514920891       -3.17835250680156       -0.95790782198163
H           -2.59660973005274       -2.53535808287880       -0.15841135276183
H            1.30469979093138       -2.92989998313843        0.13476317609973
25
 energy: 8.023043339405 xtb: 6.6.1 (8d0f1dd)
C            3.36512247222889        1.19232534931388       -0.02048156677451
N            2.34464019720879        0.13177091444745       -0.03660699062983
C            2.59661043767576       -1.24718197122844        0.02522904467278
N            1.39153166667211       -1.92486596363731        0.11582998923949
C            0.38264899616160       -1.04182566615163        0.04714591641315
C            0.92857408860537        0.24317824414734        0.00448739434198
C            0.08459598038183        1.37868437005532        0.03690270395199
O            0.42195995315892        2.55801731768541        0.10341597180437
N           -1.30548980108464        1.02507705907278       -0.02433592754768
C           -2.26614078957694        2.11539195966288       -0.08108769709295
C           -1.85157719981583       -0.21935759158195       -0.07668265717811
O           -3.04682993363086       -0.41392406700740       -0.16846627095866
N           -0.96018650587329       -1.30352464376832       -0.00701125265386
C           -1.51259846395660       -2.64275851061130       -0.07726708602613
H            4.21123380433052        0.78234802372517        0.52703699460511
H            3.97050141026101        1.71453926270177       -0.94148288716053
H            2.88139470244523        2.03327474965941        0.47177201591983
H            3.50853214236828       -1.68546597994662        0.37275503912511
H           -1.70476388236996        3.04648046968106       -0.07260099520513
H           -2.86347046509949        2.03619333259721       -0.99010032170163
H           -2.93775974658985        2.06875001136702        0.77667711349431
H           -1.28608086558772       -3.21553438660239        0.82406893699142
H           -1.14877921399684       -3.17809045918041       -0.95750940595394
H           -2.59631570846713       -2.53497941890631       -0.15911350575057
H            1.30486102952314       -2.92949361675054        0.13445935626848
25
 energy: 7.927950869753 xtb: 6.6.1 (8d0f1dd)
C            3.36477005058664        1.19205711887499       -0.02128619174383
N            2.34478125961054        0.13130273116787       -0.03750546822860
C            2.59697470739909       -1.24740141839444        0.02105951430984
N            1.39145490294830       -1.92453427180214        0.11548107200174
C            0.38253459724634       -1.04134044353916        0.04722139683643
C            0.92882120056824        0.24335316554460        0.00335055367832
C            0.08496137136856        1.37889461828187        0.03742555484173
O            0.42172820637809        2.55809834841789        0.10552427175675
N           -1.30496928611185        1.02489145442378       -0.02394469563941
C           -2.26586484758278        2.11515697311484       -0.08088609763936
C           -1.85139029543234       -0.21951870517731       -0.07691772394086
O           -3.04651628124863       -0.41350672632017       -0.16981700719484
N           -0.95999293631903       -1.30345377035021       -0.00652406518746
C           -1.51232654481919       -2.64280779949704       -0.07701320001003
H            4.21075032756590        0.78199945595400        0.52695050840683
H            3.97042258553964        1.71338656247837       -0.94267055610027
H            2.88109246238463        2.03297610289047        0.47148578357419
H            3.50612743064618       -1.68350884521941        0.37860632707954
H           -1.70483522491212        3.04647258200179       -0.07248928071797
H           -2.86327128014955        2.03561635280780       -0.98979360821747
H           -2.93736495590445        2.06854115996595        0.77699585695058
H           -1.28609054422967       -3.21551739179311        0.82438096507504
H           -1.14807441838158       -3.17807549957257       -0.95707803690770
H           -2.59593957517156       -2.53496484641669       -0.15935769923808
H            1.30443139299288       -2.92908811909787        0.13383573844937
25
 energy: 7.920194593149 xtb: 6.6.1 (8d0f1dd)
C            3.36417544720475        1.19177708472415       -0.02146175367287
N            2.34479507863339        0.13106299591352       -0.03764441283098
C            2.59759072701644       -1.24781910931203        0.01797461525440
N            1.39125256451775       -1.92439414536178        0.11513983058080
C            0.38260000476768       -1.04099553788708        0.04685694430480
C            0.92879247569806        0.24357956390582        0.00223903757377
C            0.08516404965092        1.37902170151084        0.03807452118576
O            0.42145496495890        2.55819319415204        0.10692078997127
N           -1.30485339474946        1.02479281763420       -0.02382133669082
C           -2.26582111985113        2.11512400270569       -0.08071607879137
C           -1.85123873226432       -0.21958310760582       -0.07709197622845
O           -3.04632420851358       -0.41345678718323       -0.17058835554091
N           -0.95982106656867       -1.30343841461600       -0.00626942148671
C           -1.51200770031743       -2.64283987314439       -0.07681128313343
H            4.21045393375139        0.78161898163331        0.52667652950759
H            3.97138776115530        1.71220506831374       -0.94411626078109
H            2.88090764395963        2.03325754084863        0.47115678319667
H            3.50407707760627       -1.68187432659427        0.38394641170834
H           -1.70479889026319        3.04644806402055       -0.07237467286421
H           -2.86326012377091        2.03538241492152       -0.98953534576682
H           -2.93715956088342        2.06851593259604        0.77729075391278
H           -1.28567786979531       -3.21549126697299        0.82463082785545
H           -1.14757919441077       -3.17810397208566       -0.95679231978559
H           -2.59557878438571       -2.53507851255519       -0.15927844898403
H            1.30368322182573       -2.92887552081754        0.13262853370015
25
 energy: 7.977711528402 xtb: 6.6.1 (8d0f1dd)
C            3.36356746530818        1.19162600093130       -0.02099101774709
N            2.34458658282139        0.13116964288290       -0.03704387508269
C            2.59849399379806       -1.24849845305694        0.01575614627476
N            1.39106913062348       -1.92462424922597        0.11468869448769
C            0.38291447043284       -1.04104845681894        0.04612685647320
C            0.92861969435212        0.24359917659188        0.00180627698569
C            0.08504299874570        1.37898322804117        0.03836125075123
O            0.42135107837824        2.55814575391605        0.10666610287011
N           -1.30513221934488        1.02489973747388       -0.02403963405685
C           -2.26601113492372        2.11533166744922       -0.08057134720694
C           -1.85113691583913       -0.21950545989918       -0.07698161770322
O           -3.04629533273683       -0.41383991971216       -0.16999938119679
N           -0.95963309725514       -1.30345543028433       -0.00635332041344
C           -1.51177775045387       -2.64278918965230       -0.07676172613413
H            4.21020698027847        0.78153522223449        0.52652089723170
H            3.97306926390033        1.71132230399691       -0.94504858398025
H            2.88079062731905        2.03410102996824        0.47060722840741
H            3.50293616278466       -1.68090565084339        0.38863163266046
H           -1.70471167785456        3.04646494981768       -0.07223735470322
H           -2.86347256947936        2.03566734916995       -0.98934055270634
H           -2.93720228420717        2.06866007387754        0.77751293067461
H           -1.28494386475934       -3.21548187329857        0.82461170958912
H           -1.14768544956283       -3.17806057606518       -0.95688677389615
H           -2.59541208060594       -2.53518837385023       -0.15874647745655
H            1.30298023325253       -2.92907971489999        0.13074584807214
