25
 energy: -42.576406003920 xtb: 6.6.1 (8d0f1dd)
C            3.37026942171359        1.19548413126673       -0.02149508891533
N            2.35574805256494        0.13357644126541       -0.04406751821607
C            2.60172250210680       -1.24307033048895        0.02993964915811
N            1.39533548421784       -1.92165596173175        0.11144899305272
C            0.38805054683749       -1.03659047518226        0.03754873277016
C            0.93603602804134        0.24939239375691       -0.01351639478824
C            0.09125825799800        1.38067717261385        0.04022579020245
O            0.42008442979933        2.56267704759213        0.11479620846458
N           -1.30330526302016        1.02442660471541       -0.01695215715712
C           -2.26416891587050        2.11445277525046       -0.07022660251266
C           -1.84873510926587       -0.21804966169974       -0.07422799689471
O           -3.04449904820133       -0.41450854833552       -0.16344174888990
N           -0.95592972485591       -1.30167130160842       -0.01219306007008
C           -1.51229292198086       -2.63971455591520       -0.08531811304846
H            4.17648606690993        0.86493444228183        0.63882147057830
H            3.97376275753752        1.58991360934926       -0.92652509716659
H            2.86399350878733        2.06679543269617        0.39048936301658
H            3.51858326712128       -1.69955665287805        0.33577410818155
H           -1.69952063589105        3.04339516312347       -0.06005968215324
H           -2.86359009891081        2.03723749151845       -0.97854778080420
H           -2.93488233886448        2.06782962963118        0.78844585341949
H           -1.29472609826331       -3.21755779212160        0.81436992293556
H           -1.14412295591819       -3.17735895097573       -0.96139690479009
H           -2.59629241928965       -2.52786959265152       -0.17145840094036
H            1.30183782868410       -2.92630845940668        0.14601906758968
