25
 energy: -42.168542780983 gnorm: 0.001421105803 xtb: 6.6.1 (8d0f1dd)
C            3.92152546216002        3.06906561005975        0.05623844727720
N            2.20667683466254       -0.78645472213104       -0.01142390649963
C            2.21907719980293       -2.08592994979911       -0.03096946638818
N            0.95312426845780       -2.61308916298566       -0.03257175408936
C            0.10124788990329       -1.55692914514419       -0.01370950203002
C            0.90427038354652       -0.40875839212909       -0.00026098399766
C            0.31115982661575        0.90537789707841        0.01397567505215
O            0.90234442736966        1.96418889244359        0.03364810786279
N           -1.08695707942459        0.84920943923056       -0.00095749777226
C           -1.81237641294551        2.10771732257057       -0.00883010266114
C           -1.88699996890211       -0.28061647782078       -0.00268556473428
O           -3.08979611189371       -0.20474805003887       -0.00196063855954
N           -1.24587839784567       -1.52661049065593       -0.00695307456447
C           -2.04847472487191       -2.73061352457027       -0.00186433856891
H            4.39003667858847        3.33106540930306        0.98481970933533
H            4.48220812554083        3.12847960672195       -0.85661408851158
H            2.89175593828554        2.75610397657488        0.04073139154776
H            3.10706245099320       -2.68531664964197       -0.04539459413745
H           -1.08759846600805        2.91987467535320       -0.01189270032764
H           -2.44806712496408        2.16442609037810       -0.89401147689435
H           -2.45236936811567        2.17662009086377        0.87220322899257
H           -1.83772366116584       -3.32501982020191        0.88875580475931
H           -1.85338842203001       -3.32372565753130       -0.89681233653048
H           -3.09686654101608       -2.43224869343562        0.00716276445494
H            0.71643830735630       -3.59382973290464       -0.04945148511361
