25
 energy: 0.000000000000 xtb: 6.6.1 (8d0f1dd)
C            3.23720163006194        1.16630919979326        0.08434469647475
N            2.29877817382611        0.07527477071623        0.03981603040599
C            2.58028210190900       -1.21425402444508        0.03006176031096
N            1.43813958087363       -1.93419271955128        0.00098261760884
C            0.39035688448383       -1.05887472636071       -0.00790371836672
C            0.93510056364412        0.21347819449412        0.01709077491437
C            0.09450143893243        1.40504303904423       -0.00410947031874
O            0.49712751527797        2.54126714362870       -0.00342325688240
N           -1.25076640035757        1.06271879480407       -0.03085478223738
C           -2.21907211982101        2.15522099834493       -0.05001256985998
C           -1.81739487048744       -0.20012725993278       -0.04692818574614
O           -2.99983886758376       -0.37846417018721       -0.07008878229737
N           -0.92618586207120       -1.30210215599479       -0.03682761578324
C           -1.46982264913417       -2.64643102187190       -0.06029820460571
H            3.71247264356769        1.21471455160235        1.06488849150277
H            4.00791497605742        1.03430808813993       -0.67357694370751
H            2.69910007168542        2.09770118228144       -0.09130154882931
H            3.56654120610678       -1.63682992603973        0.04233140067262
H           -1.67107961066214        3.09322851271934       -0.02552706933167
H           -2.82428953597071        2.09428624779827       -0.95318082946668
H           -2.87644029173232        2.07745725625962        0.81450067533302
H           -1.17061996399332       -3.19584890659852        0.83242232437030
H           -1.14560257411436       -3.17511610292205       -0.95688275822323
H           -2.55549792440841       -2.55659984320617       -0.07459039797972
H            1.38130855184625       -2.94313852034425       -0.01389874181052
25
 energy: -3.178749195098 xtb: 6.6.1 (8d0f1dd)
C            3.22730223093203        1.17916319122791        0.07385384625623
N            2.29877294355229        0.09148864910219        0.03255187282025
C            2.59685655820075       -1.23412651126280        0.03169015210445
N            1.42902144623274       -1.94815939958461        0.00658812835938
C            0.39295013430262       -1.06879056341751       -0.00715485282202
C            0.92168935335220        0.21157905931489        0.01203024366996
C            0.09504530998302        1.38440103072778       -0.00601746791644
O            0.49078854132237        2.54976366064673       -0.00911794913214
N           -1.26544139209651        1.04819196184106       -0.03267863056178
C           -2.18562547671728        2.18878724139681       -0.03299917174757
C           -1.82844043365812       -0.21185981514781       -0.05716147991273
O           -3.02402776288700       -0.40221368420179       -0.07931215311800
N           -0.93695896234003       -1.31622005470839       -0.03725991922353
C           -1.46145975570751       -2.66659826187143       -0.05228900202126
H            3.70264001830163        1.23553677346537        1.05642503665616
H            3.99694642658187        1.04236021816384       -0.68687246945194
H            2.67524309638988        2.09915307339968       -0.11031133301614
H            3.57750939039099       -1.65317393431628        0.04569541035431
H           -1.65723272104264        3.16980916496822        0.05394759264817
H           -2.73890547986647        2.20981357366389       -0.94544799608379
H           -2.93772897737058        2.04002258225696        0.74331675676223
H           -1.15629453451175       -3.21079233896916        0.84427754145242
H           -1.12240496343783       -3.20331038556739       -0.94124094438079
H           -2.54766812337855       -2.59337614094782       -0.07247683424065
H            1.36963780140814       -2.95242048800836       -0.00300248130751
25
 energy: 2.202203875116 xtb: 6.6.1 (8d0f1dd)
C            3.20777500475630        1.19092742820719        0.05387146417624
N            2.29211895531320        0.10327069562979        0.01886626517536
C            2.60887719651456       -1.25524253461269        0.03490582591736
N            1.41600055108831       -1.96118252852019        0.01576584026165
C            0.39311502293516       -1.08366002775261       -0.00437925968599
C            0.90214265050935        0.20472129721921        0.00327881389895
C            0.09464290279054        1.35179355036423       -0.01244739391092
O            0.47356733580616        2.53941018407522       -0.02437560837873
N           -1.28850392518137        1.03460978957576       -0.03094700742959
C           -2.14546814963314        2.23535551131917       -0.00523335036986
C           -1.84114547633875       -0.22425799065247       -0.06269352649612
O           -3.04274855740946       -0.43596753812684       -0.09160037938543
N           -0.95100603346216       -1.33217215198567       -0.03519469674614
C           -1.44612654129785       -2.69421608717461       -0.03879907512685
H            3.68376472144307        1.26760170181664        1.03730749479290
H            3.97919849858819        1.05473798198917       -0.70731874827069
H            2.63937351254165        2.09860034162728       -0.14236470744771
H            3.58474831404905       -1.66617846040901        0.05102514073101
H           -1.62974805211736        3.25747073649570        0.21335134444849
H           -2.58669770963756        2.41734214755450       -0.96893807900614
H           -3.04079644717184        1.97456439547470        0.62756035506662
H           -1.13342489681692       -3.22899559472912        0.86443146408429
H           -1.08452257940953       -3.24352001331775       -0.91518523896559
H           -2.53366589031994       -2.65310022219167       -0.06880613003039
H            1.36074426039656       -2.96288400970401        0.01495308884455
25
 energy: 10.999178720674 xtb: 6.6.1 (8d0f1dd)
C            3.18482820957826        1.19815784028883        0.03445450331265
N            2.28195592791229        0.10332376871149        0.00667746658277
C            2.61039221316331       -1.27039575379035        0.03781383130125
N            1.40778963573255       -1.97231914943629        0.02364450921250
C            0.38975813685502       -1.10026395497489       -0.00151072569090
C            0.88625441339513        0.19341412517679       -0.00517229864642
C            0.08820185662444        1.32922006930808       -0.02291338263823
O            0.45399626275504        2.52508767803123       -0.04343113788516
N           -1.31256047169290        1.02953322159778       -0.02336676421136
C           -2.12172068684566        2.27169553158350        0.02350550593400
C           -1.85390163862623       -0.23454047420485       -0.05964923063515
O           -3.05415006571762       -0.46882867010911       -0.09899699429013
N           -0.96140362583835       -1.34565999519054       -0.03216394299893
C           -1.42964516139368       -2.71960272253578       -0.02782099115906
H            3.65928823102950        1.29702471427675        1.01805014227531
H            3.95993340136436        1.06691492986521       -0.72450096831277
H            2.60350672047622        2.09660476444432       -0.17300178478646
H            3.58705365631239       -1.67303317349514        0.05564579914586
H           -1.61315131467975        3.31213693384523        0.36615415504952
H           -2.42099854607058        2.61937935005597       -0.98248418846544
H           -3.12039146337064        1.93834171619196        0.50406465306922
H           -1.11154917270393       -3.24328890095175        0.88232128079909
H           -1.04487002964601       -3.27621628162144       -0.89254486834962
H           -2.51801494206896       -2.71298247259261       -0.06930009505728
H            1.36161312139202       -2.97467449230252        0.03155942259201
25
 energy: 15.942676317429 xtb: 6.6.1 (8d0f1dd)
C            3.16291188856717        1.20037874217376        0.02281621653458
N            2.27129518296135        0.09429069929823       -0.00028217627781
C            2.60358103996075       -1.27829534026190        0.04026321687022
N            1.40405892984503       -1.97998591578585        0.02824111468199
C            0.38372466200855       -1.11442472107419        0.00012567977521
C            0.87625213505201        0.18087114795433       -0.01161152851298
C            0.07948636861416        1.31855494330115       -0.03594656009044
O            0.43742696395318        2.51011120464804       -0.06400249968303
N           -1.33142370841313        1.03373871063405       -0.01159045461237
C           -2.11160314802950        2.29719340279472        0.04355848341210
C           -1.86461601385919       -0.23963510945724       -0.04901305491754
O           -3.05795157448076       -0.49306134155866       -0.10112635346833
N           -0.96788749926256       -1.35407074799065       -0.03022274259385
C           -1.41565091617237       -2.73829139565402       -0.02496066414875
H            3.63272160017918        1.31768765527930        1.00664898589930
H            3.94294689251375        1.07672545514103       -0.73182477026759
H            2.57244746193804        2.09242574190193       -0.19311784794325
H            3.58443369881566       -1.67431103421152        0.05960563712272
H           -1.62005155174203        3.34369566207772        0.45140906913169
H           -2.28950265371787        2.73822758598464       -0.94326059492490
H           -3.13972068273778        1.95336847219403        0.39800422098847
H           -1.09615655303055       -3.25338279117638        0.89038739787538
H           -1.00959441901295       -3.29521137599935       -0.88087199718624
H           -2.50347706826649       -2.76278804788269       -0.07870712270892
H            1.36856363225258       -2.98478300015869        0.04251224119160
25
 energy: 16.779360785204 xtb: 6.6.1 (8d0f1dd)
C            3.14892101072643        1.19799874803194        0.01354435324592
N            2.26404334738675        0.08113335086418       -0.00517341419542
C            2.59126342557292       -1.27435975114797        0.03772675415367
N            1.40660432360522       -1.98150969039348        0.02981927424568
C            0.37641128907639       -1.12190934956222        0.00176017941078
C            0.87416993103580        0.17181310627008       -0.01293391931105
C            0.06956082874405        1.32071681386708       -0.03837517172878
O            0.42441269358920        2.50122855365689       -0.08129344524544
N           -1.34054637876265        1.04097786365122        0.00885696058747
C           -2.12222313307148        2.29947456435877        0.05466496025828
C           -1.87295171360612       -0.24093740013911       -0.03696992111641
O           -3.05709727646000       -0.50507953715812       -0.09478642243282
N           -0.96909854073833       -1.35641174364092       -0.02657846288631
C           -1.40996397797438       -2.74484966922740       -0.02259209655562
H            3.61332676548535        1.32347624629290        0.99688741394278
H            3.93159074268162        1.07861615440811       -0.73758242544142
H            2.55550580335704        2.08687571015326       -0.20649465575215
H            3.57773074572378       -1.66688577639955        0.05527286495901
H           -1.65516119540453        3.33730983284337        0.52459854543908
H           -2.14857746383049        2.79102960708441       -0.89782316605901
H           -3.14829794364329        1.97265575413394        0.28068266371098
H           -1.09292176791350       -3.25384190585992        0.89607940729404
H           -0.99158574922749       -3.29444162479401       -0.87475260349046
H           -2.49415174799218       -2.78530694789560       -0.08480584255671
H            1.38125064957612       -2.98874430722608        0.04730206567120
25
 energy: 19.017004681698 xtb: 6.6.1 (8d0f1dd)
C            3.14418953832616        1.19633814631397        0.00017341657293
N            2.26100254558693        0.07572701440887       -0.01365638627355
C            2.58306085903515       -1.26426995521182        0.02866863556534
N            1.41053426636891       -1.97938698929088        0.02824605876982
C            0.37132575028746       -1.12303400834060        0.00656145035931
C            0.87390006192170        0.16965401973489       -0.00924167091475
C            0.06150339120792        1.32239249400236       -0.02324846743978
O            0.41360185039115        2.50017164204226       -0.09095128934403
N           -1.34173735151545        1.03774889090111        0.04747750655697
C           -2.13312892778397        2.28849286194908        0.06356374758250
C           -1.87957336249629       -0.24447426948095       -0.01573092346790
O           -3.05958974881942       -0.51076935712563       -0.07717444913762
N           -0.96865009487618       -1.35773712401152       -0.01598421913337
C           -1.41166111510473       -2.74513144479297       -0.01536833222140
H            3.60695083545996        1.32101311919137        0.98263620691529
H            3.92556258583213        1.07434380973499       -0.75088806574922
H            2.55083736277051        2.08352803455363       -0.22103460822308
H            3.57206509532611       -1.65580235288089        0.03970665986648
H           -1.70420873063258        3.31369781586089        0.62903179729626
H           -1.95853428258041        2.84525343262856       -0.89125880076520
H           -3.21787737092528        1.95339337033578        0.12431060931435
H           -1.09590277905468       -3.25180316264522        0.90392400426408
H           -0.98980330541118       -3.28663886954248       -0.86821719813434
H           -2.49300876282918       -2.78679396117199       -0.07976368914746
H            1.39135635745149       -2.98688455499106        0.04525190303561
25
 energy: 16.094333071447 xtb: 6.6.1 (8d0f1dd)
C            3.14762147061827        1.19528370301265        0.00143199694483
N            2.26085032978450        0.07623147325005       -0.01442340539805
C            2.57843687965666       -1.25248069329513        0.02537690903509
N            1.41280480505822       -1.97409142035404        0.02580078757891
C            0.36864050362119       -1.11694646803737        0.00892768118900
C            0.87552751839294        0.17395156460073       -0.00560199117213
C            0.05808622420804        1.32537326310779       -0.01482545334889
O            0.41246067314858        2.50233309252265       -0.09211651914561
N           -1.33413489715527        1.03210715450640        0.06588503347340
C           -2.13729121081076        2.27756459792886        0.05038710032316
C           -1.88074370257201       -0.24494311620336       -0.00354287719561
O           -3.06086835025722       -0.50227022260887       -0.06735220085208
N           -0.96713771498849       -1.35583829639052       -0.01106431498056
C           -1.41743087823665       -2.74041263268795       -0.01757204228496
H            3.60983407284713        1.31346837821223        0.98458997420885
H            3.92851267709121        1.06974981707745       -0.74926557577253
H            2.55727512263009        2.08399707731400       -0.21833223551335
H            3.56700663702012       -1.64785562793653        0.03280528057725
H           -1.74597175550505        3.28624926443791        0.61998437677751
H           -1.92399345645032        2.80616356527709       -0.85236570367069
H           -3.18818939020844        1.96412083265283        0.07603563000884
H           -1.10346344603861       -3.25087410472059        0.89931170558950
H           -0.99804569747452       -3.27773444654663       -0.87360111059393
H           -2.49933539911353       -2.77319866509664       -0.08163196120341
H            1.39176365267020       -2.98091948785122        0.03819281157269
25
 energy: 15.510736795679 xtb: 6.6.1 (8d0f1dd)
C            3.14901306725157        1.19777725505364       -0.00093109203314
N            2.26012057763499        0.08133949861213       -0.01792013903833
C            2.58012131903855       -1.25001093492518        0.02217756242549
N            1.41231046004360       -1.97330838649930        0.02448419694406
C            0.36894146852628       -1.11476968439722        0.01149891839784
C            0.87312208503360        0.17710727690007       -0.00358746041665
C            0.05320362599115        1.32297006894122       -0.00812953802738
O            0.40711661815128        2.50354141784721       -0.08934670673404
N           -1.33591503120146        1.02497645158899        0.08423203795200
C           -2.13826103937067        2.27549049311442        0.04456068248102
C           -1.88247998850599       -0.24830847170531        0.00514750567251
O           -3.06480209360687       -0.50333066581926       -0.05810535408429
N           -0.96773846244413       -1.35763170939454       -0.00570382583941
C           -1.41934871425794       -2.74135166711376       -0.01553669816984
H            3.61354978687233        1.31320855541958        0.98232496585732
H            3.92926373593337        1.06975760121771       -0.75238149722208
H            2.55979166325388        2.08752267923376       -0.21960074966310
H            3.56726647458438       -1.64761442305667        0.02543732784003
H           -1.78360060979002        3.27472319623228        0.63991200454280
H           -1.86113059873485        2.81832693341980       -0.84399055915832
H           -3.18501543315831        1.96054612701099        0.02174486905942
H           -1.10555514019047       -3.25608450961901        0.89925932959669
H           -1.00362050367678       -3.27881040090532       -0.87400902936656
H           -2.50270930433383       -2.76766869643154       -0.07814098997538
H            1.38857070489260       -2.97936940255294        0.03363813510656
25
 energy: 14.934646923266 xtb: 6.6.1 (8d0f1dd)
C            3.15298830481422        1.20042485518587       -0.00307862332550
N            2.26067437462790        0.08866904361206       -0.02203619349178
C            2.58569489424263       -1.25216737962227        0.01844712492487
N            1.41044339429937       -1.97368258109696        0.02243151728883
C            0.37208491551039       -1.11168649174687        0.01318225850035
C            0.87144380597223        0.18118042203681       -0.00138047796989
C            0.05106768109840        1.32113613203929        0.00089844376842
O            0.40756778023448        2.50519711501725       -0.07442608816055
N           -1.33696726447221        1.02065829985906        0.10484591443247
C           -2.13580723950431        2.27969977716716        0.03512693996488
C           -1.88010621225398       -0.24882894269055        0.01047596192420
O           -3.06638500714539       -0.50007884061808       -0.04956993358196
N           -0.96779313511360       -1.35813479060957       -0.00070665800341
C           -1.42127117304379       -2.74046576242777       -0.01251885644532
H            3.62226409453306        1.31256689625693        0.97974980432539
H            3.93154133338113        1.07089800033055       -0.75686138050977
H            2.56539004714829        2.09251314576344       -0.21864425843717
H            3.56989997667145       -1.65329374882463        0.01600711979394
H           -1.83598314577322        3.26662064436762        0.65311939646771
H           -1.80592924369416        2.81495815184135       -0.82933975775393
H           -3.19113671668630        1.95152585122315       -0.04040120273958
H           -1.10623312951259       -3.26169922035668        0.89889018884753
H           -1.01430996053755       -3.28076012607995       -0.87491466585784
H           -2.50714483725320       -2.75729051638826       -0.06990827395284
H            1.38022113039299       -2.97893133206720        0.02764559613818
25
 energy: 13.767887647663 xtb: 6.6.1 (8d0f1dd)
C            3.15396844287577        1.20099953523208       -0.00267289073834
N            2.26042241591303        0.09060158410065       -0.02193328269703
C            2.58744844212358       -1.25349310599009        0.01834555556227
N            1.41001841033199       -1.97361492616710        0.02200039013494
C            0.37314128279446       -1.11140512666816        0.01247122754879
C            0.87090719854885        0.18157158575784       -0.00112988022373
C            0.04914735315982        1.32145957775527        0.00269811441707
O            0.40681023986791        2.50579357507582       -0.06570997409336
N           -1.33983922394092        1.02016477877536        0.10390990740116
C           -2.13993511745830        2.27875126915501        0.03109163164654
C           -1.87937192591594       -0.24998648029576        0.00764348348711
O           -3.06648969150882       -0.50086487685541       -0.05228247017230
N           -0.96767774615421       -1.35851437168045       -0.00096207269831
C           -1.42145920476328       -2.74006707132287       -0.01139418611656
H            3.62488969895360        1.31209989383727        0.97957058597402
H            3.93154054164500        1.07192887560044       -0.75771738527779
H            2.56740365454232        2.09421259423661       -0.21657864239040
H            3.57117598599771       -1.65458769043466        0.01459619772906
H           -1.84568787877541        3.25585186641025        0.64876816072419
H           -1.80431227528710        2.81982255583731       -0.83503099636943
H           -3.17781954831363        1.95463780890258       -0.03464585468279
H           -1.10451915715050       -3.26147476987636        0.89932430385632
H           -1.01806461515684       -3.28116147841909       -0.87514155432011
H           -2.50766914581124       -2.75482402505841       -0.06532560714916
H            1.37818653141842       -2.97887297573638        0.02713913459507
25
 energy: 13.669293227636 xtb: 6.6.1 (8d0f1dd)
C            3.15366610767030        1.19994649067014       -0.00314403286834
N            2.26030243199027        0.08902503833767       -0.02155798465527
C            2.58657000445518       -1.25369299860371        0.01831131255406
N            1.41022609922133       -1.97346235225264        0.02170904957835
C            0.37279217740802       -1.11190445871062        0.01236884157743
C            0.87166656730617        0.18054876918615       -0.00079644659988
C            0.05018744961371        1.32249229723512        0.00377898144584
O            0.40810840925890        2.50555715034826       -0.06441350193454
N           -1.33926095218019        1.02225704033946        0.10237327374533
C           -2.13966281577637        2.27927065895777        0.03102949221495
C           -1.87883081631057       -0.24916760249382        0.00781510534822
O           -3.06519083834564       -0.50026210271866       -0.05426703097128
N           -0.96754680919011       -1.35777886994846       -0.00096106137762
C           -1.42131273920142       -2.73932296688710       -0.01105574902948
H            3.62448953051494        1.31138534554526        0.97871444940062
H            3.93079369191536        1.07150328467704       -0.75856698847432
H            2.56711247019289        2.09318583459311       -0.21674691069060
H            3.57086243936018       -1.65382315085994        0.01427847918646
H           -1.84364044712523        3.25483491837451        0.65173842563028
H           -1.80642026747481        2.81888785999299       -0.83529875227143
H           -3.18388903873786        1.95391946623584       -0.03647219986171
H           -1.10346137098461       -3.25958127356755        0.89976854558801
H           -1.01753705858835       -3.27974426528698       -0.87473562218220
H           -2.50711593495707       -2.75606060401684       -0.06441219766947
H            1.37930637790124       -2.97898490697524        0.02757641846384
25
 energy: 13.357508937292 xtb: 6.6.1 (8d0f1dd)
C            3.15341858167874        1.19935998552884       -0.00333747237727
N            2.25995234703326        0.08841656935342       -0.02099083335371
C            2.58621818713687       -1.25419641597302        0.01876239353723
N            1.41009517633227       -1.97336708751210        0.02146951891570
C            0.37255590607663       -1.11228376018388        0.01226687147436
C            0.87190049687346        0.17985655628391       -0.00064729488545
C            0.05092992900100        1.32295513313578        0.00423029626647
O            0.40914258083740        2.50535607721024       -0.06244298513079
N           -1.33934174324508        1.02358377079655        0.09944950265503
C           -2.13883996442454        2.28022216661810        0.02986840576277
C           -1.87840483662796       -0.24891738490233        0.00686237410475
O           -3.06450965842740       -0.49985375690520       -0.05653377030302
N           -0.96776775629084       -1.35723716828377       -0.00092330184961
C           -1.42110649031888       -2.73891372451274       -0.01048801837320
H            3.62458385938963        1.31101930211052        0.97814885702654
H            3.92997829662671        1.07126365827451       -0.75933456608227
H            2.56687095460602        2.09279066836444       -0.21653479151562
H            3.57096035411024       -1.65315828680267        0.01404042844452
H           -1.84339514458840        3.25081410955980        0.65399028558485
H           -1.80965729326503        2.82110415054350       -0.83566828813238
H           -3.18501790363876        1.95396448277624       -0.03609193831960
H           -1.10200438638287       -3.25838089976670        0.90024405173116
H           -1.01737992101839       -3.27901632925010       -0.87439191756432
H           -2.50677616880096       -2.75726783013001       -0.06308015059362
H            1.37980926526312       -2.97908538416163        0.02816623912471
25
 energy: 12.895116932450 xtb: 6.6.1 (8d0f1dd)
C            3.15331180674733        1.19901116719888       -0.00358120875583
N            2.25968680667657        0.08817043322539       -0.02046057580420
C            2.58594396262605       -1.25453504571095        0.01952762993804
N            1.40988507329757       -1.97327555603684        0.02129732327085
C            0.37230681101655       -1.11244221291330        0.01221080133068
C            0.87198385225201        0.17955807087025       -0.00074289257359
C            0.05153001038785        1.32319349134898        0.00400523389139
O            0.40978772350479        2.50534995054451       -0.06135887859680
N           -1.33946452976267        1.02438448383921        0.09641780116931
C           -2.13815147587799        2.28069328883719        0.02873844835660
C           -1.87821976647136       -0.24889315183821        0.00574840490159
O           -3.06430347097643       -0.49944376639853       -0.05789603407618
N           -0.96811894605796       -1.35670610637227       -0.00079019805166
C           -1.42098323619786       -2.73861608767396       -0.00991103635398
H            3.62484835332377        1.31091139399057        0.97763732594917
H            3.92941837155936        1.07088966685648       -0.76000808255460
H            2.56674134008229        2.09256357224440       -0.21658714834911
H            3.57107626055267       -1.65245966268474        0.01373986707548
H           -1.84563835514474        3.24466789078908        0.65813529462512
H           -1.80977604855450        2.82488973637814       -0.83588019388183
H           -3.18498847103511        1.95446510795982       -0.03681945417244
H           -1.10098867161662       -3.25760522198669        0.90071406622732
H           -1.01729052103504       -3.27857103428504       -0.87399280420868
H           -2.50655824641767       -2.75806935228821       -0.06208727843297
H            1.38017603505742       -2.97910245372239        0.02897748522356
25
 energy: 12.639294122280 xtb: 6.6.1 (8d0f1dd)
C            3.15335668536430        1.19914278069583       -0.00349722776865
N            2.25986711791596        0.08823891224824       -0.02004548613472
C            2.58586546097449       -1.25454855228523        0.02065993263642
N            1.40973746446292       -1.97332976813586        0.02149084942148
C            0.37220652954800       -1.11234889971505        0.01213621727135
C            0.87195835639024        0.17979567160550       -0.00120478178397
C            0.05192285155477        1.32296139517654        0.00247500775357
O            0.40977205793865        2.50549252493751       -0.06309015168188
N           -1.33926752329415        1.02417599393726        0.09403481180194
C           -2.13725355571941        2.28069996479921        0.02861427622025
C           -1.87844655727364       -0.24899804351263        0.00511796966363
O           -3.06472773847801       -0.49926029985746       -0.05743265516801
N           -0.96836510712544       -1.35651328173393       -0.00097984251723
C           -1.42094872771395       -2.73867417179351       -0.01010005801268
H            3.62479865217764        1.31142954778705        0.97782170758042
H            3.92963475059266        1.07071134899503       -0.75970436941863
H            2.56656492592117        2.09248640238886       -0.21690795244566
H            3.57107962156021       -1.65229912159247        0.01403953929894
H           -1.84611118172560        3.24096158689308        0.66005096612163
H           -1.81150813137946        2.82731311857865       -0.83519544262980
H           -3.18369384220105        1.95527894382616       -0.03502961729842
H           -1.10135150798542       -3.25764249949093        0.90069304207080
H           -1.01669824987397       -3.27877084224348       -0.87389051626235
H           -2.50649295028470       -2.75818242352144       -0.06294806706644
H            1.38031526659003       -2.97909168581517        0.02992574449525
