72
 energy: -3.724712947416 xtb: 6.6.1 (8d0f1dd)
N           -1.56585535819815        2.84408204350812        2.28959560270062
C           -1.58654324785619        2.16537209951865        1.23429037284548
C           -2.74915798871390        2.06623555442909        0.28891426636425
C           -3.31907783344150        0.65666711639411        0.36106081298119
C           -4.27728554695075        0.24459497188417       -0.56574565277583
C           -4.82275392595042       -1.02430768467350       -0.52709181381722
O           -5.76493218405152       -1.50133335934855       -1.38880624230773
C           -6.32313985121472       -0.62188887951104       -2.33031833863337
C           -4.40167540249255       -1.93647329982754        0.46546596229756
O           -4.99319911788776       -3.16500279531394        0.42268714938473
C           -4.68621468920912       -4.09238303928123        1.43056560648761
C           -3.45611345070218       -1.52702130981112        1.38539361512949
C           -2.92295844866677       -0.24369725353590        1.33286067080407
C           -2.14740375119127        2.30480852367637       -1.11760040180959
C           -1.21596183119327        1.17817716201245       -1.58978051514838
C            0.03494676363242        1.09554162935703       -0.78346146363374
N            0.65329305453574       -0.10970117268253       -0.49313349642453
C            2.05428034086057       -0.17619910720810       -0.19360049351116
C            2.99665939131681       -0.54360367742377       -1.45613589763556
C            4.41775426280042       -0.43915555434389       -1.00862828233834
C            5.15442640413262        0.71571165889056       -1.20757763590506
C            6.44289040506889        0.83659037121733       -0.70543507173960
C            7.00895154351468       -0.19802688652627        0.01585904749987
O            8.25276911847000       -0.18654162159438        0.57674297688537
C            9.05199050968360        0.95113288949705        0.39317371059954
C            6.26986286772865       -1.38460943106486        0.21769734592540
O            6.90473914641046       -2.34962202671515        0.93814210067583
C            6.25340314585829       -3.57641005233021        1.13733448544898
C            4.99307859387342       -1.49003223087598       -0.29233572838797
C           -0.07738321963907       -1.34207325791443       -0.57602443704034
C           -3.88785892846531        3.08095742048339        0.57404285741587
C           -4.55708993615231        2.79812727227722        1.91713881128778
C           -3.42162123973655        4.53462070310111        0.53058622620417
H           -4.60372284891712        0.93582225102072       -1.32522367149657
H           -6.78554257376646        0.24763878785852       -1.85028688857511
H           -7.09026133887589       -1.19856188590905       -2.84489785364814
H           -5.57966400937292       -0.28151698556318       -3.05903858899000
H           -4.93707579378335       -3.70639268673705        2.42440068836296
H           -5.30126098637400       -4.96563428503304        1.21781919213772
H           -3.62969598362309       -4.38203947855279        1.41028777545270
H           -3.12805222370326       -2.19591310868085        2.16577599163190
H           -2.20786288760632        0.04946832263728        2.08609003278960
H           -2.95779338956390        2.42275595892140       -1.83809692984286
H           -1.58247498471589        3.23743661031601       -1.10705063901573
H           -1.77007268250182        0.23903823250774       -1.57808535467546
H           -0.95278460633333        1.39408226978263       -2.62925668204752
H           -0.71207326530779        1.63081320917614        0.79842713605984
H            0.70183280764306        1.94125675642779       -0.81676301047134
H            2.17947117488281       -0.87504859812514        0.65190887822917
H            2.32952924476518        0.81809482697718        0.20371279582331
H            2.84582857211019        0.08201004110547       -2.34604333669016
H            2.74929717349560       -1.57249022160828       -1.71304480032307
H            4.73705206756477        1.53778569021915       -1.76970620962371
H            6.99580670421310        1.74767737402931       -0.87944994368794
H            8.59855765369147        1.84298920990927        0.83852450786538
H            9.25626282990847        1.14165801833334       -0.66434718185847
H            9.98726172991433        0.72907210944608        0.90298540424321
H            6.95119212589779       -4.18593084247222        1.70761312055974
H            5.33123373784440       -3.45828516657696        1.71622409935205
H            6.02597998485694       -4.07583038900671        0.18875750029776
H            4.42280103952867       -2.39464355040925       -0.14949762881651
H           -0.25323211163874       -1.63585567744112       -1.61572971038943
H           -1.04632922368750       -1.26360046015361       -0.07155452216231
H            0.50838345489696       -2.11737442396392       -0.08790790044504
H           -4.63974371973431        2.94530748202158       -0.21492327735721
H           -3.84627744874572        2.94995146595030        2.72022331891537
H           -4.92634992420016        1.77623208980623        1.95908760438227
H           -5.39615463791213        3.47563725901668        2.06099998048522
H           -2.65371027630105        4.70453521282607        1.27666390972330
H           -3.03551379346443        4.80665410579399       -0.44831313929045
H           -4.26254259289558        5.18914947855362        0.75058164175952
H           -0.70050404269136        2.84231855979857        2.82259271369053
