72
 energy: 25.567756304281 xtb: 6.6.1 (8d0f1dd)
N           -1.68503247717436        2.94470221933619        2.37189378117818
C           -1.64318657688785        2.20369184066327        1.36331408717220
C           -2.75287170051540        2.07776276693552        0.35725627606806
C           -3.32171356416483        0.66860708832522        0.41655004125432
C           -4.23236143496501        0.24296044764251       -0.55112033946650
C           -4.78046974865814       -1.02555595973744       -0.52171051211460
O           -5.68058683577792       -1.51371928479885       -1.42044265694843
C           -6.21340409490412       -0.63949468221745       -2.38171997816713
C           -4.40466373907027       -1.92628795686259        0.49955112910291
O           -4.98940508581371       -3.15639101572240        0.44101699794777
C           -4.71877461873630       -4.07944650803050        1.46328750318661
C           -3.50543985638081       -1.50384273516351        1.45933575576701
C           -2.97492716900879       -0.21894474536582        1.41802423918484
C           -2.07570925760517        2.31127821116989       -1.01354806939507
C           -1.16121735181979        1.16297824522099       -1.47143016777997
C            0.07939355909304        1.01218649153066       -0.64992663380415
N            0.65186159555052       -0.19165688051672       -0.36143487633676
C            1.98238604175314       -0.33640741609110       -0.05013898381762
C            3.17932805678439       -0.57036930124248       -1.82140333098305
C            4.51056160555308       -0.45346951176693       -1.28001727719750
C            5.28317856179690        0.69463775857628       -1.45438022816062
C            6.52692826991490        0.82779659221841       -0.85867403094646
C            7.02196443618976       -0.17815225995207       -0.04875998085396
O            8.20579093519156       -0.14399504705715        0.63675745472509
C            9.02121406891452        0.98621415586949        0.49967650566977
C            6.26561739125690       -1.35865443481980        0.12273434007562
O            6.82902356665016       -2.29831460862585        0.93612959009165
C            6.15887816759693       -3.51666681959943        1.11095920412941
C            5.04034091949863       -1.48539571492429       -0.48525328751740
C           -0.12687742582400       -1.39810437703104       -0.49780109023489
C           -3.91399752496433        3.08519350579515        0.56156313344308
C           -4.64765579194889        2.82871767883922        1.87656154627060
C           -3.46323854883512        4.54298408207443        0.50348037117945
H           -4.51832227581419        0.92300427253375       -1.33665328530256
H           -6.69092172945173        0.23197275249195       -1.91992132446832
H           -6.96418274198801       -1.21830698737190       -2.91786655932015
H           -5.44876221329773       -0.30107954914597       -3.08851559172298
H           -5.01746077531989       -3.69397275218434        2.44396441850367
H           -5.31466586276199       -4.96014112306548        1.22677811176570
H           -3.65940644156057       -4.35805034880696        1.49099946050706
H           -3.21528468165523       -2.16233243378899        2.26346274923390
H           -2.30091144891813        0.08644373422385        2.20374935997561
H           -2.85341199905001        2.47793656404012       -1.76164556946598
H           -1.48007143543495        3.22214718436708       -0.96254941726305
H           -1.73722654607661        0.23940991014740       -1.50292241332727
H           -0.86806004918584        1.39723226925253       -2.49773172386310
H           -0.76380317279712        1.61513881667953        1.04827779352723
H            0.75325010526347        1.85704627709911       -0.62065035585704
H            2.21353745404532       -1.18664475296454        0.57687918860364
H            2.37765340337055        0.59073641976675        0.36362837006576
H            2.98814510664304        0.09600097914260       -2.66815646353259
H            2.84043387168544       -1.57621678231588       -1.99594274539425
H            4.92192220218362        1.49537756840631       -2.08295726689456
H            7.10315535457134        1.72885849042196       -1.01918227474259
H            8.52309458406695        1.89117052443831        0.86596447519298
H            9.33788682650036        1.14521320753013       -0.53455208351614
H            9.90043873321311        0.78487383956685        1.10991409781080
H            6.78619443838899       -4.10314349577358        1.77911699638652
H            5.17856612149533       -3.38127028273407        1.58181413164829
H            6.03621980860672       -4.04733441010895        0.15942765325318
H            4.46069416600590       -2.38750750453950       -0.36841789854307
H           -0.29203726413095       -1.64413788657172       -1.54760234691435
H           -1.09913964002725       -1.29596520478821       -0.00635642547176
H            0.42617611951812       -2.20864293359126       -0.03253154794624
H           -4.62504776349291        2.92121931042838       -0.26133183997344
H           -3.98189657429307        3.01750290268756        2.70813646052815
H           -5.00186267223976        1.80201323090556        1.92977707518361
H           -5.50385154367267        3.49592272323807        1.96054164844866
H           -2.73651225196901        4.73784674103111        1.28203928152249
H           -3.03155749681597        4.79302435485587       -0.46196541094702
H           -4.32046488865654        5.19413354893377        0.66477528813426
H           -0.86351671747429        2.95986023109681        2.96621669394879
