72
 energy: -5.716507370728 xtb: 6.6.1 (8d0f1dd)
N           -1.52773658664539        2.80766499165277        2.26312943156734
C           -1.56788811768610        2.15847873864252        1.18963569570670
C           -2.74760683197064        2.06301162921415        0.26609490108091
C           -3.31676589322020        0.65232865250175        0.34265183063644
C           -4.29009904588411        0.24535582174658       -0.57134630019933
C           -4.83556557012713       -1.02320343176312       -0.52917164305378
O           -5.79213809016963       -1.49527672129741       -1.37675337336738
C           -6.35960442323901       -0.61555996454524       -2.31280952354397
C           -4.39968018982828       -1.93939868521305        0.45382787693733
O           -4.99244599470754       -3.16620445132822        0.41595438950028
C           -4.67492949194073       -4.09610706444053        1.41881165066549
C           -3.43878809051573       -1.53510313148622        1.36004295340608
C           -2.90447246986023       -0.25227363843692        1.30402066560839
C           -2.17143664383587        2.30328658654021       -1.15200746676599
C           -1.23802491441228        1.18018426660828       -1.62929871843744
C            0.02021619043038        1.11313497988546       -0.83849434129555
N            0.64361386310154       -0.07781801132805       -0.52903498047827
C            2.02897644503311       -0.10389217717269       -0.17549120947991
C            2.96505805413791       -0.54112298526534       -1.36491401157086
C            4.38823702879627       -0.43602378071379       -0.92222975118088
C            5.11463366288485        0.72346175227693       -1.12499597485566
C            6.41468000373742        0.83963222284947       -0.65475086797371
C            7.00307896641476       -0.20360440117283        0.03619604479963
O            8.26493863735189       -0.19921986044227        0.55209014744674
C            9.06097744469536        0.93960878975205        0.35601708599061
C            6.26980643630616       -1.39270989071432        0.24872629390322
O            6.92885460267705       -2.36672545101498        0.93484276800208
C            6.28399679206034       -3.59549341739311        1.14506650277971
C            4.97860300881852       -1.49200903469946       -0.22746276626562
C           -0.06388686924783       -1.32288627299707       -0.59780126753493
C           -3.87838809567231        3.07915984828804        0.57861505908172
C           -4.52603078363518        2.78617529919545        1.93020024799020
C           -3.40804986675674        4.53188222854353        0.53983653861559
H           -4.63103115002499        0.94058638217276       -1.32076177496738
H           -6.81769630823261        0.25312568530435       -1.82756225953070
H           -7.13188114297733       -1.19219476822069       -2.81964313226529
H           -5.62379823409714       -0.27507362706787       -3.04940551110464
H           -4.91008340267154       -3.71045724499427        2.41653985585230
H           -5.29649251233063       -4.96643455676534        1.21375940095393
H           -3.62008978853905       -4.38984099460012        1.38248757013591
H           -3.09869189367701       -2.20738355717538        2.13216723215370
H           -2.17635152616133        0.03621476481822        2.04660825683577
H           -2.99179701876260        2.40325788528063       -1.86323025574925
H           -1.61705379088732        3.24273627736995       -1.15550273574069
H           -1.78467219635577        0.23733270148781       -1.60070957532157
H           -0.98174765170491        1.38913928566956       -2.67300079829105
H           -0.69736715982079        1.64158937821087        0.71810396603049
H            0.67675150386377        1.96602532434060       -0.87849798768791
H            2.14719070508902       -0.76983108020478        0.69311387334598
H            2.31210495050867        0.90367505152204        0.15853939145487
H            2.80763426687942        0.07443366267600       -2.25560521186678
H            2.71510339266244       -1.57308434522689       -1.61121498340481
H            4.67835298699879        1.54986402683570       -1.66611388016061
H            6.96006089586236        1.75287222883063       -0.83537165520180
H            8.62496295141440        1.82676512064000        0.82745398838473
H            9.22910406393419        1.14123603757441       -0.70643352005337
H           10.01239638942544        0.71035674108561        0.83205044673824
H            7.00270221826443       -4.21172974647575        1.68174389032222
H            5.38318277805638       -3.48224296067605        1.75768697259222
H            6.02220480443864       -4.08487296700752        0.20047638053314
H            4.41156002977116       -2.39789908499369       -0.07854878262629
H           -0.23778692392842       -1.63021287441172       -1.63421467581361
H           -1.03103124475406       -1.25218184951457       -0.08959221211999
H            0.53414693724186       -2.08509220090707       -0.10383634881271
H           -4.64234736555885        2.95141801752754       -0.19879201150377
H           -3.80203243630108        2.92585169595887        2.72482439350504
H           -4.89983801858153        1.76584119365213        1.96835260456915
H           -5.35960182021877        3.46569643135646        2.09291710469530
H           -2.62728757145037        4.69581618991922        1.27503238155583
H           -3.03777419619881        4.81183864520007       -0.44309007472864
H           -4.24392788655011        5.18576952507107        0.77876455990990
H           -0.64706871897404        2.80547478325176        2.77309734015047
