72
 energy: 35.005970786194 xtb: 6.6.1 (8d0f1dd)
N           -1.75045194555460        2.98734000985017        2.41886941241952
C           -1.67387970773776        2.22504017631576        1.42798606861064
C           -2.75400971450000        2.08240945208071        0.39189940384575
C           -3.32217310327191        0.67300881645142        0.44492944139365
C           -4.20773929369790        0.24137253737185       -0.54361044090379
C           -4.75744704062261       -1.02643799572868       -0.51862957755671
O           -5.63760193425925       -1.51797519962304       -1.43386322936659
C           -6.15718433937500       -0.64751330364167       -2.40628448246126
C           -4.40600661304134       -1.92165769241713        0.51671710362334
O           -4.98604431643543       -3.15238047657034        0.44906517755196
C           -4.73549598800174       -4.07310518630223        1.47908313350828
C           -3.53093664795944       -1.49329323696169        1.49601227690633
C           -3.00110961972908       -0.20778391980460        1.46070884137561
C           -2.03830794503906        2.31160877402149       -0.96075709413609
C           -1.13775672671067        1.14854419092588       -1.41622031334048
C            0.10434589163887        0.95667890321329       -0.60289962695078
N            0.64290270477879       -0.22382472531408       -0.28724394807793
C            1.88083691581813       -0.40077222091056        0.17307528027529
C            3.34231477432706       -0.59663223802796       -2.09133481647909
C            4.56054186121526       -0.46183992316154       -1.42604401586214
C            5.35571557397994        0.68996315818442       -1.57620466738275
C            6.56784737282855        0.82494081390641       -0.93451785275851
C            7.02640157686731       -0.16815082885934       -0.08229365577886
O            8.17293720132699       -0.12226002573780        0.65776414502080
C            8.99938804648340        1.00406850313125        0.54932438095365
C            6.25854244615901       -1.34868364606987        0.07329743823755
O            6.78668180121573       -2.27029614625845        0.93075837522867
C            6.11135072813333       -3.48707256100407        1.09735905513926
C            5.06439842426399       -1.48604395890107       -0.58164939331611
C           -0.15259632535708       -1.42205067253999       -0.45709877405658
C           -3.92455001044322        3.08662291601842        0.55597401922064
C           -4.69120966452721        2.84354326810080        1.85502802157955
C           -3.48112441488851        4.54635538255319        0.48890073934877
H           -4.47401410485771        0.91588619298903       -1.34087050861887
H           -6.64257038195942        0.22477842656590       -1.95456460500827
H           -6.89979856170341       -1.22788680883326       -2.95219414625965
H           -5.38270162795545       -0.31105754502200       -3.10297652895721
H           -5.05843472129674       -3.68856032157471        2.45229662256502
H           -5.32218361543759       -4.95642703993639        1.23021325031734
H           -3.67600330151196       -4.34726168401892        1.53127020086162
H           -3.26024140501996       -2.14608687164910        2.31137897621468
H           -2.34809455904752        0.10285270429547        2.26206017589963
H           -2.79780217000687        2.50008405658283       -1.72325374642257
H           -1.42935910396571        3.21227148546257       -0.88962086617872
H           -1.72953263334905        0.23666251623872       -1.46358427044224
H           -0.82796667696100        1.39163268899374       -2.43506061628757
H           -0.79346817934622        1.61663532714235        1.17514499803036
H            0.76205301348621        1.81198860180595       -0.52127200567137
H            2.16032621697168       -1.33396225145572        0.60391385026853
H            2.41247864253137        0.48875026511597        0.45578156522943
H            3.08299113447954        0.10586701685245       -2.86841383429746
H            2.88229056423366       -1.56497925259344       -2.12816340471261
H            5.01955623866244        1.47387927855993       -2.23714577447034
H            7.15455042168732        1.72007681867774       -1.08629147791317
H            8.48350522075221        1.91456027242319        0.87656926764015
H            9.37202958102599        1.14666643744877       -0.46831503828186
H            9.84577142767951        0.81041771848912        1.20711575517636
H            6.70257108792853       -4.05789264124908        1.81027631703593
H            5.10662977675924       -3.34500571158165        1.51084133600489
H            6.04536556018802       -4.03392066348189        0.15048481551728
H            4.47932972394373       -2.38569403468395       -0.48034810428678
H           -0.30581763468169       -1.63884477270036       -1.51227252216052
H           -1.12626413926077       -1.31069057242896        0.02649014579892
H            0.38219520393730       -2.25248152508377       -0.00717678087332
H           -4.61301025846633        2.90706236034381       -0.28264699916150
H           -4.05090305635710        3.05015710646475        2.70222479602570
H           -5.03942769669764        1.81517393601327        1.91440536995107
H           -5.55475281210104        3.50486043051843        1.90641173672237
H           -2.77577686534278        4.75674486875850        1.28286567673481
H           -3.02778350890514        4.78477921275549       -0.46951674715035
H           -4.34586944167546        5.19441467391738        0.61923601466610
H           -0.94627891479000        3.01901115056815        3.03725366141820
