72
 energy: 18.099075579805 xtb: 6.6.1 (8d0f1dd)
N           -1.66367691872065        2.93019497028814        2.35661567896638
C           -1.63330895708703        2.19564810215387        1.34219207730594
C           -2.75204869892446        2.07588631019730        0.34576544169240
C           -3.32125121318569        0.66686670865299        0.40701992149963
C           -4.24023928549111        0.24338073566302       -0.55353432440662
C           -4.78783084011322       -1.02528513676715       -0.52266209122568
O           -5.69503438056834       -1.51207933107177       -1.41573448839233
C           -6.23216921658656       -0.63666998408087       -2.37328073415903
C           -4.40419096627448       -1.92782621761666        0.49369402368699
O           -4.99048731265829       -3.15800039322328        0.43802142550436
C           -4.71313652553404       -4.08161147611912        1.45765270795527
C           -3.49711421057561       -1.50749008481378        1.44695524333571
C           -2.96620699310818       -0.22290322775527        1.40371966869349
C           -2.08776485642355        2.31054968423641       -1.03123775390555
C           -1.16874091266766        1.16736304561026       -1.49084592952215
C            0.07057863592233        1.03301426376495       -0.66572509278392
N            0.65653628758685       -0.18098409808061       -0.38474561297904
C            2.01440480528370       -0.31504650460862       -0.10915135409688
C            3.12748361565471       -0.56354216385508       -1.73474595872806
C            4.49345214226707       -0.45036046695706       -1.23009892558034
C            5.25920096555300        0.69641604704709       -1.41380185106156
C            6.51266277113093        0.82831917736870       -0.83384428633148
C            7.01983964759055       -0.18172420086592       -0.03751732309948
O            8.21427496961472       -0.15119464601666        0.62867185987581
C            9.02704675112840        0.98020480861658        0.48234251571194
C            6.26676666906222       -1.36296474115412        0.13947430068574
O            6.84162117046772       -2.30696195236524        0.93784458126810
C            6.17447875254352       -3.52697719250697        1.11579972252705
C            5.03131467082502       -1.48565169377808       -0.45213995592445
C           -0.11668035298383       -1.38905706224262       -0.51172081406928
C           -3.90994224637067        3.08435605031035        0.56360188065758
C           -4.63282582896957        2.82343067531041        1.88355320515367
C           -3.45718225131033        4.54165644298086        0.50847147725602
H           -4.53278403015534        0.92530069184525       -1.33500605935305
H           -6.70715259906177        0.23446803450152       -1.90821174762685
H           -6.98566999102070       -1.21510970413691       -2.90597313572814
H           -5.47099486194573       -0.29761269422178       -3.08361624620150
H           -5.00372890159611       -3.69599435013942        2.44075873729147
H           -5.31210424315311       -4.96129370887234        1.22511285103796
H           -3.65394556311372       -4.36175110143168        1.47721225286070
H           -3.20050165273383       -2.16789181358061        2.24718016423536
H           -2.28513223443168        0.08052200566760        2.18403612529406
H           -2.87114912896406        2.46940818931212       -1.77479683109126
H           -1.49687233070703        3.22500424599830       -0.98689511420902
H           -1.74030998681785        0.24021190950289       -1.51512657381103
H           -0.88220838176641        1.39804781892362       -2.52010173406720
H           -0.75396997052285        1.61546595199390        1.00511469212289
H            0.74864212019730        1.87366214819177       -0.65479257861399
H            2.21859929602617       -1.13364660839569        0.57964665441576
H            2.36807662729603        0.62489556390199        0.33204244857012
H            2.95712859397993        0.09193117266542       -2.60129501959461
H            2.82549010329648       -1.57664068173204       -1.94920469187214
H            4.88933969129064        1.50204554582830       -2.03123482348198
H            7.08492188301889        1.73138662140982       -0.99679783073490
H            8.53583973572932        1.88331255873761        0.86159122274107
H            9.32478252011032        1.14397224882666       -0.55678040917667
H            9.91649801219608        0.77553902425690        1.07611766454703
H            6.81430957358979       -4.11766546057410        1.76818325309133
H            5.20306591314604       -3.39469477670375        1.60538538343359
H            6.03410657595295       -4.05212581856795        0.16351643445035
H            4.45311330874835       -2.38808327469310       -0.32999807763204
H           -0.28532894388019       -1.64422198781660       -1.55996167878157
H           -1.08850066340749       -1.29000810534684       -0.01780552435213
H            0.44142469163542       -2.19374312484317       -0.04139307116340
H           -4.62823803814740        2.92538723131077       -0.25379525770308
H           -3.95907465960151        3.00629134548248        2.71016701845197
H           -4.98912778183579        1.79732658342330        1.93477693428431
H           -5.48650003184114        3.49237226315269        1.97785071327591
H           -2.72351345560230        4.73189878325298        1.28182079818656
H           -3.03286796466296        4.79566252253051       -0.45921564319751
H           -4.31208567269032        5.19329334322561        0.67984009897389
H           -0.83556343551568        2.94006851882130        2.94208028475320
