72
 energy: -5.017678359576 xtb: 6.6.1 (8d0f1dd)
N           -1.54649568069194        2.82591596685354        2.27668178167552
C           -1.57710737197642        2.16182818898625        1.21211921644498
C           -2.74823412818624        2.06465350900585        0.27749768152740
C           -3.31771845045357        0.65452430004063        0.35172119989788
C           -4.28352161085195        0.24500932849701       -0.56867273484291
C           -4.82902252025561       -1.02370573794005       -0.52830656487352
O           -5.77852641122910       -1.49826732701703       -1.38290120196488
C           -6.34147044686560       -0.61864202245832       -2.32157762762801
C           -4.40050655625237       -1.93789830111305        0.45944440581855
O           -4.99273452240149       -3.16557896800418        0.41902006411757
C           -4.68045491036867       -4.09416476492669        1.42442904212924
C           -3.44721182505764       -1.53104786204921        1.37253194558043
C           -2.91344820872230       -0.24798376040201        1.31829472295130
C           -2.15949903672004        2.30412796605237       -1.13493584692734
C           -1.22681867218919        1.17952389020911       -1.60970409187177
C            0.02761099533847        1.10480318322907       -0.81081920769086
N            0.64834473690606       -0.09363674317194       -0.51153338613822
C            2.04182548504675       -0.13983389911493       -0.18497514557481
C            2.98058390629040       -0.54193780266193       -1.40960932974753
C            4.40293592890988       -0.43771656235772       -0.96520478347965
C            5.13442366034897        0.71931727605085       -1.16660156533964
C            6.42873438762142        0.83798195485310       -0.68041321990602
C            7.00602908910126       -0.20087363252226        0.02599739501463
O            8.25908242659360       -0.19280590757416        0.56453481942017
C            9.05681926112432        0.94538794579507        0.37445563964457
C            6.26978881035992       -1.38870687388703        0.23330860998194
O            6.91674087148476       -2.35818789872148        0.93688014435981
C            6.26826781372008       -3.58578902098928        1.14143954691509
C            4.98571790750263       -1.49125661572172       -0.25990885254825
C           -0.07052514331410       -1.33251454365398       -0.58662203158507
C           -3.88311930831507        3.07997084561160        0.57621948866654
C           -4.54133763905159        2.79166056412460        1.92357423321539
C           -3.41503963520213        4.53320928222571        0.53537696384693
H           -4.61714888985681        0.93824915538056       -1.32317021387347
H           -6.80168664661918        0.25043829006967       -1.83884564443396
H           -7.11120621574498       -1.19530451592489       -2.83223463408487
H           -5.60186714743723       -0.27815931976060       -3.05426627274650
H           -4.92341083815102       -3.70830017221574        2.42024269094128
H           -5.29878007316156       -4.96595103731539        1.21553779323917
H           -3.62474036668611       -4.38582723538249        1.39607950344776
H           -3.11307261806321       -2.20168190535084        2.14875609421764
H           -2.19166012306897        0.04277233287992        2.06610312093434
H           -2.97507163641990        2.41293980135403       -1.85070772139272
H           -1.59990653612358        3.24020797486055       -1.13154807334655
H           -1.77693136647573        0.23835092487342       -1.58907869651626
H           -0.96769651238298        1.39186735642700       -2.65147783733092
H           -0.70455793106677        1.63585904119188        0.75840344272296
H            0.68989080654364        1.95367375678216       -0.84738196309615
H            2.16274047055237       -0.82290122243939        0.67207690430161
H            2.32004794509240        0.86133647026551        0.18169330673763
H            2.82745667427442        0.07844723513712       -2.30002172737652
H            2.73161859865112       -1.57231188522383       -1.66119799532839
H            4.70731451816113        1.54351185496789       -1.71823145111460
H            6.97776576643014        1.75019860948652       -0.85773251195492
H            8.61218116725875        1.83513773640028        0.83267901681136
H            9.24313936057901        1.14125683259395       -0.68569156804837
H           10.00025344149276        0.71983583695060        0.86756123436045
H            6.97630004012926       -4.19879492779929        1.69535963757001
H            5.35639259084103       -3.46965499007517        1.73682658318874
H            6.02384002148539       -4.08026039157513        0.19470071304613
H            4.41722744121864       -2.39673356798522       -0.11473546127657
H           -0.24582295541776       -1.63330237653361       -1.62461740579301
H           -1.03822847449207       -1.25717298830626       -0.07969115106376
H            0.52150734330329       -2.10117971966249       -0.09534328956401
H           -4.64102804565125        2.94827730747261       -0.20704607445757
H           -3.82376812453762        2.93748604027387        2.72231585888662
H           -4.91249926746712        1.77040452107578        1.96344195230095
H           -5.37792247932334        3.46988571267177        2.07700083930069
H           -2.64074325557970        4.70005887976486        1.27611639940770
H           -3.03679306067789        4.80937424652884       -0.44549371398817
H           -4.25360255170554        5.18729866013576        0.76482916713384
H           -0.67333868969477        2.82398011639092        2.79809707828991
