72
 energy: 36.206129894848 xtb: 6.6.1 (8d0f1dd)
N           -1.83472140919074        3.05578367695408        2.46380075139245
C           -1.71872023547486        2.24710458114268        1.51332502676928
C           -2.75402550463047        2.08620854334483        0.43710457286099
C           -3.32140695983265        0.67653207142664        0.48254062004510
C           -4.17522399924017        0.23827439964749       -0.53191559312299
C           -4.72784637152459       -1.02763770509242       -0.51290942922818
O           -5.58071368463103       -1.52366342322417       -1.45116985674574
C           -6.08238485910821       -0.65778997472990       -2.43778339879267
C           -4.40880819923767       -1.91558384056151        0.53980083254583
O           -4.98154098760851       -3.14755290116926        0.45987001203644
C           -4.75739470758480       -4.06487090720565        1.49967068764483
C           -3.56710139048878       -1.47959274380448        1.54467086308971
C           -3.03690354956816       -0.19398278608565        1.51781482385969
C           -1.99195246437500        2.31318005777253       -0.89252168599946
C           -1.11512773474357        1.13219433636154       -1.34536599923049
C            0.12108869053399        0.91082858656248       -0.53929100684553
N            0.61411584522791       -0.26205837458263       -0.18666368294408
C            1.79799785646832       -0.45383704257565        0.38175793288746
C            3.47789510590494       -0.62008341493351       -2.34208809803025
C            4.63838704005908       -0.47427321772111       -1.60386533575774
C            5.45287970916979        0.67268942182910       -1.73658104795783
C            6.62879394401060        0.81482353483663       -1.03545989948426
C            7.03509214931133       -0.15711304603260       -0.12892215545395
O            8.12648546104463       -0.09281331292623        0.68472361784914
C            8.96783192456172        1.02799125821646        0.61449372333362
C            6.25490472754597       -1.33642586573539        0.00760144346069
O            6.72907956088230       -2.23211055669824        0.92308426759710
C            6.04766357457948       -3.44829427938286        1.07983362949730
C            5.10121421583926       -1.48575706888412       -0.71190625995774
C           -0.19296612791219       -1.44403169264163       -0.40313677982530
C           -3.93558298077468        3.08817292693827        0.55034357558407
C           -4.74684296545652        2.86248577205209        1.82591779028364
C           -3.50352215146211        4.55112699780340        0.46955481842167
H           -4.41528527722837        0.90573879348561       -1.34367806987142
H           -6.57850081056666        0.21490430390164       -1.99929151968607
H           -6.81373092206526       -1.24200267256023       -2.99469117166796
H           -5.29586793511844       -0.32363083754497       -3.12206556872573
H           -5.11296573210656       -3.68162878121693        2.46179065433917
H           -5.33184877861644       -4.95056848980329        1.23280980072643
H           -3.69862839954882       -4.33314365660898        1.58444107314245
H           -3.32248344672999       -2.12494490098962        2.37388376599148
H           -2.41256284928979        0.12150775048022        2.33970139068721
H           -2.72490818833779        2.52346389687104       -1.67457312989379
H           -1.36575299193239        3.20049497400320       -0.79419665822346
H           -1.73127584956056        0.23647948911540       -1.40878332447888
H           -0.77775599560872        1.38087423121468       -2.35418168342912
H           -0.83734046435713        1.61293641208977        1.34051952374752
H            0.76362069261006        1.76389080310405       -0.39436799734155
H            2.06308346807653       -1.41684100745709        0.76090641768068
H            2.41086571732773        0.39314916822465        0.61000783005411
H            3.19632356352136        0.10265559045814       -3.09180690654829
H            2.95533424101992       -1.56179972553582       -2.31871639031903
H            5.15447085178869        1.43996373849431       -2.43375867708687
H            7.22695930359994        1.70423836805147       -1.17742937852103
H            8.43407286769523        1.94866496279563        0.88317446852690
H            9.41796324295815        1.14241184555936       -0.37510554293931
H            9.76315454771757        0.84232745304748        1.33587641430332
H            6.58932360376797       -3.99319422496347        1.85047613399702
H            5.01419121934174       -3.29891237594223        1.41103309624348
H            6.05455576993166       -4.02776543641258        0.15112118534778
H            4.50744455125578       -2.38065145997877       -0.62399105147358
H           -0.32877704517843       -1.63163716435655       -1.46584446391977
H           -1.17097859559497       -1.32433325378341        0.06680640450090
H            0.31929995450253       -2.29565571605351        0.03323448383656
H           -4.59230633535009        2.88642875431796       -0.30604622635028
H           -4.14398888937889        3.09314404235409        2.69559238215586
H           -5.08867347769138        1.83238423505362        1.89383770140113
H           -5.61839307088027        3.51480102283589        1.82980626079546
H           -2.82746544008653        4.78633834144758        1.28300000189392
H           -3.02129704327901        4.77570322942813       -0.47847889615949
H           -4.37899282742528        5.19152720320779        0.55770704405434
H           -1.06143372942269        3.10402879159161        3.12270636413860
