72
 energy: 35.667695961048 xtb: 6.6.1 (8d0f1dd)
N           -1.85952696417054        3.07835024447970        2.48325122813133
C           -1.73621342145997        2.26010523700548        1.54011137144381
C           -2.75478522493408        2.08967295186194        0.44355051509619
C           -3.32179155820400        0.67914518686057        0.48987417789178
C           -4.17042638008959        0.23800258242798       -0.52923433949849
C           -4.72350002558066       -1.02821373185442       -0.51174503745972
O           -5.57805815209842       -1.52505687914330       -1.44965252346780
C           -6.07077631128120       -0.66208696570342       -2.44289655615697
C           -4.40861787875643       -1.91438604224369        0.54387111852169
O           -4.98061832080972       -3.14785194933347        0.46260869324551
C           -4.76148862043705       -4.06285440358862        1.50552359118353
C           -3.57564741398924       -1.47493252011117        1.55528649714725
C           -3.04681006089811       -0.18851320299736        1.53101731025500
C           -1.99227687361270        2.31402726008430       -0.89254004664249
C           -1.12081517024498        1.13978178984701       -1.37510858900710
C            0.10019022197365        0.92760878362195       -0.54882487864916
N            0.55672780632187       -0.23740062046087       -0.11009521096577
C            1.67463788324277       -0.37924419923953        0.58909770717919
C            3.64115065396894       -0.69376806746247       -2.56104803808002
C            4.73586337253629       -0.50866381120333       -1.74857480943420
C            5.53171798865204        0.66443975921219       -1.83130600660006
C            6.64408586664598        0.83192063878558       -1.04221667755333
C            7.02618877404540       -0.14723928957581       -0.12855471205495
O            8.11662028158265       -0.09321604988514        0.68501759175897
C            8.96170690043816        1.02547652192565        0.62114530878252
C            6.23905647495262       -1.32615397925950       -0.00662725380297
O            6.69870247980390       -2.21397316464274        0.92443892954723
C            6.03074806350005       -3.43856355071031        1.07655014710370
C            5.13060886897241       -1.49297615240124       -0.79297473450163
C           -0.21844628978338       -1.43913616469066       -0.37155417589924
C           -3.94176429248430        3.09046351484219        0.54403297190508
C           -4.75706655277281        2.86799672608204        1.81720900318300
C           -3.50772442849664        4.55273759634067        0.46200841120050
H           -4.40433153140792        0.90384299665182       -1.34401525460008
H           -6.56803955856903        0.21169404753279       -2.00855321613734
H           -6.79920876366593       -1.24845054130343       -3.00137372981707
H           -5.28000940169441       -0.32977501966765       -3.12436623490748
H           -5.12221313460596       -3.67793253315933        2.46526401817176
H           -5.33293286755316       -4.95013796853914        1.23685387491532
H           -3.70285512011145       -4.32996795072805        1.59667618441366
H           -3.33354541895756       -2.12038655667533        2.38505571990813
H           -2.42481324741740        0.12709356987248        2.35420457054491
H           -2.72351116673219        2.53010690514689       -1.67391298105482
H           -1.35775041463573        3.19545587472158       -0.78433375987249
H           -1.73281832524516        0.24110712094991       -1.42498578211474
H           -0.81513921215136        1.38549798235466       -2.40286273426758
H           -0.85526700769187        1.61964612383888        1.39368238682865
H            0.74047304133330        1.77999918674625       -0.38464749348867
H            2.00236742653469       -1.34950529269052        0.89392650303262
H            2.29632439671935        0.47465094668404        0.76869423437051
H            3.36156638763437        0.04253195761538       -3.29278952672769
H            3.03857449520348       -1.58124666557388       -2.49610050008397
H            5.25152389341780        1.43208317019850       -2.53749787653650
H            7.22925012465818        1.73377651975253       -1.14175804947310
H            8.43417388264761        1.94834934234459        0.88507878716977
H            9.41411686971089        1.13796581252286       -0.37032671151786
H            9.74609622069665        0.83857351036836        1.35379682414057
H            6.57912503697865       -3.97534648454849        1.85052371019643
H            4.99338536804983       -3.29889855176310        1.40095789364456
H            6.04544228878507       -4.02431002552749        0.15048565686367
H            4.52869123592325       -2.38513196124670       -0.71870423128425
H           -0.31974386735874       -1.59322628002323       -1.44595910203339
H           -1.21266803057275       -1.35887212723876        0.07169165845319
H            0.28739771294747       -2.30052744878080        0.05825436416231
H           -4.59707501900921        2.88830077169238       -0.31198514487016
H           -4.15128932793453        3.09792233421782        2.68730604558950
H           -5.09841039623859        1.83767146263561        1.88673003630289
H           -5.62815650437439        3.51963609752750        1.81432901790679
H           -2.83104691686144        4.78694769212469        1.27715300492174
H           -3.01964405552940        4.77500057236855       -0.48337661255036
H           -4.38383284977628        5.19218295894727        0.54591221134164
H           -1.08395874683549        3.11747123873428        3.14181758278260
