72
 energy: 10.160511255442 xtb: 6.6.1 (8d0f1dd)
N           -1.64308835544517        2.91475574197527        2.34209242853121
C           -1.62365316158094        2.18755949644768        1.32114009899772
C           -2.75126939146714        2.07384973530630        0.33432031779206
C           -3.32083940772987        0.66494841509499        0.39755153942000
C           -4.24798234010715        0.24364314050014       -0.55595800559871
C           -4.79506003716104       -1.02512261052286       -0.52355268265820
O           -5.70937632125541       -1.51035832424369       -1.41082595630904
C           -6.25060545582926       -0.63382708998461       -2.36482388972614
C           -4.40378334937557       -1.92946966881683        0.48796096302128
O           -4.99151603560512       -3.15969412935486        0.43506110556511
C           -4.70761322030807       -4.08383867512669        1.45215748125300
C           -3.48888665417413       -1.51125313631830        1.43462550169161
C           -2.95753129940848       -0.22698121833730        1.38943560606067
C           -2.09984751631031        2.30955791468004       -1.04886673521655
C           -1.17708352722342        1.17094925018559       -1.51072992939733
C            0.06254710043373        1.05085632478082       -0.68414251910695
N            0.66046440419322       -0.16920791344906       -0.40947807579923
C            2.04357048815222       -0.29501139493982       -0.15877922903883
C            3.08108600230733       -0.55682007805502       -1.65396160866263
C            4.47621703184964       -0.44722733374449       -1.18094006257049
C            5.23603136393888        0.69903858101368       -1.37262472864209
C            6.49840907381226        0.82916792358634       -0.80873127336203
C            7.01800253743055       -0.18530780493409       -0.02640466084691
O            8.22257245579522       -0.15849165462549        0.61966825139151
C            9.03274803307828        0.97422173190778        0.46471674900310
C            6.26788623810551       -1.36760225814686        0.15569430187743
O            6.85433963203815       -2.31552826443457        0.93899899375636
C            6.19031314692554       -3.53721548786745        1.12065402719842
C            5.02277042017717       -1.48626495828620       -0.41930403502150
C           -0.10700604926821       -1.37957636337881       -0.52574154610141
C           -3.90564499509544        3.08352900358530        0.56569810475934
C           -4.61771926946982        2.81828794996950        1.89053649764103
C           -3.45057710815993        4.54025726402781        0.51330366492847
H           -4.54711228763299        0.92741387162987       -1.33330803177465
H           -6.72304745713273        0.23700924824446       -1.89660414570912
H           -7.00681962352963       -1.21184483711731       -2.89408695898450
H           -5.49284047684425       -0.29426293398039       -3.07867326230658
H           -4.99017322370872       -3.69814117985931        2.43761071416429
H           -5.30965324025379       -4.96243864466497        1.22356322207096
H           -3.64870381785601       -4.36558682340351        1.46363700181910
H           -3.18584780436351       -2.17346365594785        2.23095539862087
H           -2.26943408717721        0.07450490859085        2.16427594541657
H           -2.88887770495257        2.46079021782899       -1.78784598507013
H           -1.51378535027981        3.22758416936465       -1.01115352629402
H           -1.74482923870492        0.24074964599966       -1.52778973886053
H           -0.89691524600347        1.39834255746960       -2.54273630826023
H           -0.74452233741143        1.61657044345975        0.96237673192575
H            0.74202861463739        1.88942461288373       -0.68869257186695
H            2.21972803691358       -1.08170336421220        0.58472467217865
H            2.36021790822132        0.65844069844934        0.30010960259598
H            2.92865560873201        0.08833535016308       -2.53712312983464
H            2.80958734348077       -1.57500269740197       -1.90059734421788
H            4.85739578696647        1.50903188558331       -1.97892492598744
H            7.06660638738265        1.73428475531586       -0.97361823429202
H            8.54870333906287        1.87531878632011        0.85705936931201
H            9.31148975883599        1.14275933553509       -0.57892439513269
H            9.93206349525913        0.76612077838303        1.04184056172989
H            6.84234206310946       -4.13182425597466        1.75714479895469
H            5.22812782622325       -3.40780734262554        1.62855962004032
H            6.03259461498529       -4.05713484080599        0.16822862494052
H            4.44633585431201       -2.38919839666218       -0.29251092999625
H           -0.27907317678440       -1.64404520089928       -1.57221365063534
H           -1.07836915546676       -1.28361420327929       -0.02933871572330
H            0.45575080146336       -2.17855754068342       -0.05030240697731
H           -4.63107384300836        2.92952268657155       -0.24610507073356
H           -3.93609229657283        2.99511021586239        2.71221596998397
H           -4.97632621492040        1.79287873098928        1.93985483301436
H           -5.46872882598254        3.48898312577190        1.99502864640097
H           -2.70994872780216        4.72600373538089        1.28133258757098
H           -3.03372105125496        4.79805665419940       -0.45664604060640
H           -4.30295025212180        5.19251916343351        0.69460297318719
H           -0.80791998610984        2.92004935168191        2.91805365896881
