72
 energy: -1.827565354528 xtb: 6.6.1 (8d0f1dd)
N           -1.58494532379780        2.86286467343800        2.30229636344565
C           -1.59581177969650        2.16970438400731        1.25648800241395
C           -2.74970428199609        2.06804333602076        0.30030555995815
C           -3.31974324039465        0.65882188559685        0.37023030373362
C           -4.27033195488323        0.24434491019884       -0.56308882030091
C           -4.81606628089369       -1.02460499179764       -0.52609233083283
O           -5.75121439174209       -1.50395670626366       -1.39453423415377
C           -6.30507341459584       -0.62504034194621       -2.33900851913727
C           -4.40236236887899       -1.93477490941509        0.47118421712621
O           -4.99311685380190       -3.16396355826527        0.42593410355577
C           -4.69173456626082       -4.09023069088004        1.43623341720934
C           -3.46445590384182       -1.52299646656035        1.39789797872139
C           -2.93181243846026       -0.23943386515038        1.34719395312691
C           -2.13548396103811        2.30598029684520       -1.10046706412944
C           -1.20557364606925        1.17722868574729       -1.57040650680630
C            0.04204573661628        1.08590711353859       -0.75725419859045
N            0.65683103176761       -0.12569076267322       -0.47457652585788
C            2.06178740334492       -0.21167866854614       -0.19838997202012
C            3.01355935676986       -0.54613167667528       -1.50069828316734
C            4.43259542341320       -0.44071068582953       -1.05091330711551
C            5.17469486234303        0.71167646333832       -1.24873364228191
C            6.45718024119201        0.83482301394671       -0.73099899220739
C            7.01192984654235       -0.19517040633428        0.00548105084144
O            8.24633509130561       -0.18002658999779        0.58831358980468
C            9.04783227164876        0.95670246801055        0.41114978291924
C            6.26994422441912       -1.38063466943128        0.20212723079538
O            6.89252437927737       -2.34134457707493        0.93886999260573
C            6.23799208334661       -3.56704117864238        1.13325733261616
C            5.00060410724883       -1.48901835734475       -0.32435161732539
C           -0.08470389285435       -1.35188639996262       -0.56477029849099
C           -3.89251446043442        3.08160568161782        0.57188907220903
C           -4.57247194557750        2.80344311367838        1.91061363044338
C           -3.42905415879221        4.53602409250309        0.52618142538295
H           -4.58988718027467        0.93372524394419       -1.32717153908785
H           -6.76993724737573        0.24484759181441       -1.86184320793217
H           -7.06945968870053       -1.20199720570621       -2.85738379714348
H           -5.55789302303767       -0.28476259522045       -3.06387695709743
H           -4.95057416107601       -3.70409361111517        2.42799400123465
H           -5.30349745825524       -4.96490782458204        1.21954921691620
H           -3.63446754358695       -4.37777764249628        1.42399907912422
H           -3.14246806211016       -2.19029126573270        2.18226747771672
H           -2.22335534119985        0.05592393897135        2.10582586965242
H           -2.94067487557248        2.43253253763185       -1.82566428523925
H           -1.56531833377550        3.23509967836046       -1.08304660338381
H           -1.76313593160610        0.24010483616603       -1.56604365853869
H           -0.93902347896858        1.39588946175988       -2.60817624110291
H           -0.71969427519393        1.62631841641659        0.83902393530524
H            0.71349872462412        1.92860132947946       -0.78579115842116
H            2.19235473090645       -0.92705436956546        0.63247406385754
H            2.33875491473076        0.77499659872827        0.22525407506102
H            2.86618648639211        0.08414184571752       -2.39071396736647
H            2.76580015473254       -1.57287926888822       -1.76104974947325
H            4.76686356696867        1.53139582200932       -1.82141638248190
H            7.01369963490209        1.74482268326683       -0.90193471467168
H            8.58618771525205        1.85093179812270        0.84320015404830
H            9.27045492095243        1.14155110157461       -0.64347412142707
H            9.97464245403334        0.73836107596768        0.93786546164491
H            6.92479083056114       -4.17281168851560        1.72060028568198
H            5.30535643441224       -3.44612585321590        1.69468682813263
H            6.02806852299522       -4.07186023088164        0.18326176598205
H            4.42875281495452       -2.39323743248345       -0.18580475431251
H           -0.26062339021624       -1.63943978718298       -1.60599032523710
H           -1.05442602938868       -1.26918886213347       -0.06231578188405
H            0.49471475870179       -2.13341156803472       -0.07917058303152
H           -4.63811617077893        2.94157197730397       -0.22282457424804
H           -3.86868276862853        2.96161317398942        2.71820845322822
H           -4.93905639509283        1.78064332843737        1.95446761394145
H           -5.41460211374168        3.47941133455314        2.04474235904487
H           -2.66786226367607        4.70965759971454        1.27778845737839
H           -3.03513124209847        4.80434188355653       -0.45057459651895
H           -4.27289177361755        5.19021499571653        0.73649464020949
H           -0.72750653236445        2.86163647221870        2.84698197017108
