72
 energy: 35.768835980291 xtb: 6.6.1 (8d0f1dd)
N           -1.87056947065372        3.09353598379430        2.48426033063746
C           -1.74251609048084        2.26204284631881        1.55400066888681
C           -2.75436515085203        2.08979536891938        0.45124298221905
C           -3.32275688586637        0.68023333273763        0.49623815222688
C           -4.16642345780557        0.23785783149362       -0.52643108422909
C           -4.71977289496251       -1.02826317936845       -0.51052237714325
O           -5.57025815257624       -1.52627156410248       -1.45180011027737
C           -6.05848773235373       -0.66326166500595       -2.44668115929951
C           -4.41014023253596       -1.91309493659837        0.54705171285465
O           -4.98125440129143       -3.14766710516582        0.46385486050795
C           -4.76466889384264       -4.06113874260452        1.50816398770096
C           -3.58318790095448       -1.47224207978867        1.56247110938088
C           -3.05468250212661       -0.18577694394103        1.54010115210443
C           -1.98600407178380        2.31356262610714       -0.88145158683452
C           -1.11645755448835        1.13802589050919       -1.36408297496616
C            0.09747209896682        0.92200117720494       -0.53072513906030
N            0.56172821836848       -0.24904630973841       -0.11043057105575
C            1.69713307026344       -0.39811605556979        0.55737712267379
C            3.62585625262866       -0.66331062873511       -2.55990784558355
C            4.73290354511353       -0.49390072831169       -1.76073772166216
C            5.55016902787727        0.66288485397498       -1.85888281569487
C            6.65599222897676        0.82848284885340       -1.05907193585738
C            7.02566527558718       -0.14575769307853       -0.13477374611580
O            8.10658526000415       -0.08905265849771        0.69216885527550
C            8.95634498443622        1.02546949140652        0.62799448334263
C            6.23627032941426       -1.32331111566939       -0.01937301385594
O            6.68898673391512       -2.20745292917497        0.92029227826674
C            6.02488131177777       -3.43369720762675        1.07319482976015
C            5.13477205003920       -1.48860020503250       -0.81740575713443
C           -0.22071103336123       -1.44661733155465       -0.36939534056298
C           -3.94201461403713        3.09041419399148        0.54402707222011
C           -4.76481327856707        2.87109236028393        1.81225127057105
C           -3.51073456870856        4.55325780956245        0.45937593916877
H           -4.39491363887991        0.90242064375847       -1.34347523020597
H           -6.55669758690050        0.21079120271981       -2.01400313441876
H           -6.78514053200926       -1.24935071362391       -3.00757971256511
H           -5.26549648394236       -0.33093390949230       -3.12583445664899
H           -5.13010256939623       -3.67623984721392        2.46610966692645
H           -5.33293380649992       -4.95008345714090        1.23833500278147
H           -3.70603608303233       -4.32640007985632        1.60402391326085
H           -3.34451794771465       -2.11748522966743        2.39300023354706
H           -2.43636423104254        0.13085283433138        2.36525938548448
H           -2.71342199308028        2.53474115272774       -1.66499607198587
H           -1.34880122406525        3.19230743331106       -0.76738816266807
H           -1.73048692946389        0.24083280232028       -1.41940162271444
H           -0.80718777187013        1.38440109153058       -2.39116463959527
H           -0.86446670311051        1.61413768294016        1.42360604684312
H            0.74509125372352        1.76951029729287       -0.36946759738532
H            1.98593360946029       -1.35402366349033        0.93295013423100
H            2.30970985432101        0.45670729556814        0.75393319421621
H            3.34873258022507        0.07197391779245       -3.29337792451009
H            3.03148516342947       -1.55815954438138       -2.50236890559833
H            5.27936871639469        1.42611720005085       -2.57182529896710
H            7.24136681296366        1.73073847669752       -1.15161070854467
H            8.43544541124820        1.95137302561593        0.88650407016796
H            9.41073692572445        1.13356889741810       -0.36388355580577
H            9.73584957242875        0.84035605727624        1.36613292552849
H            6.57147612484245       -3.96812649503558        1.85150802665991
H            4.98778730656196       -3.29921602940219        1.39400292648931
H            6.04489217892469       -4.02202876046794        0.14936691109592
H            4.53268617563523       -2.38089818698398       -0.74719244511285
H           -0.32284153812491       -1.60088800865256       -1.44396007355816
H           -1.21293992216258       -1.35455648945096        0.07614948645508
H            0.27885381123987       -2.31168548830350        0.06034376530035
H           -4.59384161006509        2.88623466283192       -0.31389881420185
H           -4.16366591752189        3.10494877527791        2.68453429225354
H           -5.10573827091479        1.84081616707976        1.88312309048186
H           -5.63661674965087        3.52057959309452        1.80136593090333
H           -2.83889823383786        4.79014990476319        1.27760815408724
H           -3.01756481317462        4.77371924291453       -0.48338190588562
H           -4.38811652764772        5.19116676363509        0.53603852848934
H           -1.10260306391228        3.13283871053851        3.15093131145198
