72
 energy: 36.183540164694 xtb: 6.6.1 (8d0f1dd)
N           -1.87535747968504        3.09477618098326        2.47526054014704
C           -1.74003582363198        2.25701087536887        1.55316686055508
C           -2.75237160863103        2.08717008230936        0.45752961906804
C           -3.31904472026674        0.67712743155117        0.50046869030629
C           -4.15887925344617        0.23612364763140       -0.52550769479012
C           -4.71380088252095       -1.02871185567115       -0.50962581121088
O           -5.55145252828133       -1.52813205373897       -1.46081996520446
C           -6.04492925811844       -0.66401193318059       -2.45361133177485
C           -4.41014366157061       -1.91270692034103        0.55130839709579
O           -4.98023745321822       -3.14601197964237        0.46642562508706
C           -4.76806192398597       -4.06073873529851        1.51056674605935
C           -3.58496035677954       -1.47358996962132        1.56885924564916
C           -3.05386619220559       -0.18830419815437        1.54588723382905
C           -1.96925770223267        2.31787331683035       -0.86166828039519
C           -1.10271175697540        1.13704736771266       -1.32968297704065
C            0.11480206413772        0.91054691753566       -0.50222490045377
N            0.59211634207122       -0.26955986430477       -0.13969362421680
C            1.75164028659998       -0.44704189515125        0.47808061260699
C            3.54548075090221       -0.63704739496642       -2.45727931846073
C            4.68073349681399       -0.48093210063722       -1.68955561463955
C            5.50305607645244        0.66536959212553       -1.81411642644620
C            6.65886290516382        0.81456998464103       -1.08159341345368
C            7.03426679806659       -0.14856216391201       -0.15044311557114
O            8.09931322075168       -0.07799790666158        0.69617240341482
C            8.95125325805083        1.03598135000047        0.64316876001688
C            6.24880188279734       -1.32707128741254       -0.02309450702577
O            6.69970471323272       -2.21313829377046        0.91443374619205
C            6.01380030771450       -3.42737325260013        1.06877352498606
C            5.11824833237228       -1.48558218607774       -0.77533318152087
C           -0.21176137454677       -1.45207854305633       -0.38072978301287
C           -3.93961722845668        3.08854152842477        0.54786922932213
C           -4.77338341876324        2.87144475596128        1.81121123381012
C           -3.51404669402957        4.55381918746286        0.45974343828370
H           -4.38666474131627        0.90076272526569       -1.34353486837566
H           -6.54685339219633        0.20849849785947       -2.02161778921291
H           -6.77037575981784       -1.25077674860736       -3.01553358414401
H           -5.25332154098556       -0.33006467375293       -3.13254903532491
H           -5.13983047254228       -3.67793007607952        2.46677946310116
H           -5.33570558743855       -4.94816132370148        1.23552240783761
H           -3.70973360110417       -4.32585270529827        1.61144447787730
H           -3.35424196010242       -2.11527992538785        2.40508900251491
H           -2.44521946055384        0.12911714495282        2.37890563902945
H           -2.68886286023111        2.53735738668304       -1.65168106597300
H           -1.33590073582549        3.19937428993326       -0.74538202056633
H           -1.72293406007991        0.24424776641866       -1.39286169434906
H           -0.77982930369476        1.38289576872322       -2.35211160541556
H           -0.86244981393031        1.60583302878291        1.42370153192146
H            0.75893092628707        1.75477855248098       -0.32467735927210
H            2.01883804231636       -1.40927985258802        0.85918797897512
H            2.36394230752499        0.40341994703311        0.69357101464027
H            3.26406908589996        0.09287042239234       -3.19812159245002
H            2.99197998442389       -1.56310004392340       -2.41527491327392
H            5.22587095422074        1.42297869331715       -2.53115655384445
H            7.25978181497520        1.70651470464092       -1.20307873403011
H            8.42102753652099        1.96422553581868        0.88191616429429
H            9.43189330709975        1.13393577836854       -0.33392545999398
H            9.71877527167612        0.85523525427139        1.39596287548482
H            6.53261404969796       -3.95900319317053        1.86349616378187
H            4.96889155961494       -3.27515544711366        1.36275230198298
H            6.04400094354436       -4.02291280193791        0.15137452585427
H            4.52298565715682       -2.38071764160076       -0.69778572060168
H           -0.33559923642880       -1.62329883455388       -1.44803026020313
H           -1.19463898468305       -1.33647761564375        0.07947543033261
H            0.28971441264228       -2.30989586146483        0.05678780448025
H           -4.58099546787331        2.87652447414259       -0.31662205790462
H           -4.19153118606584        3.11488163655017        2.69255623717158
H           -5.11352081656291        1.84096247033716        1.88412921814070
H           -5.64744362149971        3.51937805168858        1.78870411129174
H           -2.85319358257466        4.80338202187470        1.28182686646235
H           -3.01770446592678        4.77371320524150       -0.48247865254215
H           -4.39602051188431        5.18751808617150        0.52734690257083
H           -1.12121840964102        3.15142141161938        3.15467912911526
