  25
        -42.16899525
 C          3.3899052515        0.5895547553        0.0161633519
 N          2.2547088825       -0.2873315631       -0.0020380939
 C          2.2542986266       -1.6408292715       -0.0086040137
 N          1.0405703246       -2.1523260296       -0.0086376260
 C          0.1986888808       -1.1018672022       -0.0008002802
 C          0.9402531143        0.0900618561        0.0041070972
 C          0.3064452803        1.3805971062       -0.0021401345
 O          0.8715314507        2.4548018006       -0.0128663118
 N         -1.0867763910        1.2697053392        0.0019088444
 C         -1.8588785602        2.4979089510       -0.0001511478
 C         -1.8396676301        0.1001807460        0.0046069174
 O         -3.0454354536        0.1359506638        0.0086130139
 N         -1.1516275793       -1.1110024811        0.0012990291
 C         -1.8846129128       -2.3541831267       -0.0011131536
 H          3.9002345910        0.5333314835        0.9811046058
 H          4.0971294075        0.3106631063       -0.7663798264
 H          3.0514137061        1.6138205562       -0.1428714650
 H          3.1489949982       -2.2314379454       -0.0143763673
 H         -1.1670087880        3.3392993157        0.0065920246
 H         -2.4949283284        2.5394135639       -0.8870465320
 H         -2.5072177260        2.5337728481        0.8779448456
 H         -1.6181302341       -2.9418190975        0.8793362462
 H         -1.6335014653       -2.9300058811       -0.8938975969
 H         -2.9506103874       -2.1291135716        0.0091899661
 H          0.0432530899       -4.8387853765       -0.0221171686
