25
 energy: 105.193524984113 xtb: 6.6.1 (8d0f1dd)
C            3.27955885322978        1.17441594826005        0.04999821814447
N            2.30620727651351        0.10474388098270        0.03216697308571
C            2.64983066853683       -1.16968516756255        0.02770124969668
N            1.55423282612163       -1.94340815758871        0.04425617388839
C            0.40246326360754       -1.10890509885662        0.09300139660110
C            0.94713014632792        0.21177766142215        0.07388132390087
C            0.15933474135746        1.44651562982709        0.07801464078217
O            0.71490968065390        2.55406032929371        0.06075464094082
N           -1.15304237433009        1.19485459777973        0.07252786524494
C           -2.07555359370680        2.25982971460884        0.18040397830619
C           -3.05851466216835       -0.59833635590044       -1.59267301893906
O           -4.03275243926978       -0.10970814689357       -1.31589318717894
N           -0.81590988123378       -1.44067093154617        0.19822261076668
C           -1.33431019501370       -2.75585055222077        0.21089572966642
H            3.77389014634461        1.23252689171814        1.02313200417947
H            4.04478240985882        1.00652408717588       -0.71250858346284
H            2.76239235227735        2.11782871280226       -0.12822733381445
H            3.66390294663253       -1.52992351922297        0.00400932575424
H           -1.54721954668476        3.20564298577430        0.26591720651581
H           -2.74489771841507        2.29111134466849       -0.68426156216788
H           -2.70430447153647        2.09601748162365        1.05933200925869
H           -0.68408753223489       -3.42247852330600        0.77372985283252
H           -1.45079348245974       -3.16217838668659       -0.79251390841955
H           -2.29273701879634       -2.70664694244538        0.71335600794017
H            1.59182331277208       -2.94770558590615        0.06358847388405
