25
 energy: -5.760342079016 xtb: 6.6.1 (8d0f1dd)
C            3.24505154071777        1.17616207831807        0.08209306311146
N            2.30320086859862        0.10572297916971        0.03638982120849
C            2.60136002814186       -1.23818872505692        0.03527754530798
N            1.41647839733790       -1.93561601011112        0.01247782526390
C            0.38608834181467       -1.06105815504085        0.00839873300039
C            0.91428675562269        0.22324703916240        0.02454997187676
C            0.10585744996317        1.37535554831065        0.00656964721006
O            0.49086211414020        2.55014321746830        0.02065879446458
N           -1.28667238808853        1.03694479942921       -0.05012028542142
C           -2.21579237663080        2.15452875721453       -0.03551436111238
C           -1.85615458418851       -0.20286008837411       -0.13848924721194
O           -3.05389760121684       -0.38361271109051       -0.20064735127838
N           -0.96081809471230       -1.29987014760965       -0.04709692176762
C           -1.47102633009755       -2.64931138697141       -0.03773653051398
H            3.72869003597055        1.22468141492850        1.06252447021660
H            4.01376601140657        1.03767695629646       -0.68261132030886
H            2.70491272672066        2.10445368423516       -0.09521652686822
H            3.58208326331273       -1.64867034775922        0.03718459558412
H           -1.64963442192569        3.08414063443881       -0.00145274716033
H           -2.82330435366422        2.12295997901455       -0.93590125653546
H           -2.86805619296309        2.07861054050659        0.83372053322348
H           -1.12600833152451       -3.19893075542218        0.84353291574052
H           -1.17213625740200       -3.18597535018522       -0.93845502578948
H           -2.55522503291388       -2.57085040773961       -0.01269337359398
H            1.37532016428106       -2.94007022341482        0.00309413733894
