25
 energy: 0.377420117555 xtb: 6.6.1 (8d0f1dd)
C            3.25384960192949        1.18271270267513        0.07290665067831
N            2.29964213801561        0.11521103471448        0.03701710678890
C            2.60365590038443       -1.23478218528206        0.05074262850440
N            1.40848988642369       -1.93112861015812        0.02926914542551
C            0.35848619006636       -1.06670160912040       -0.00719890551258
C            0.90085442752855        0.21132642321068        0.02196844701780
C            0.07705839683137        1.34385328354544        0.00272266567945
O            0.47060706137191        2.51617431795159        0.05571238641747
N           -1.33227165173952        1.00399197386884       -0.09186375405068
C           -2.20864152932764        2.16071698232146       -0.00756307919064
C           -1.93550352194836       -0.21773765702033       -0.32359314515263
O           -3.12600537039379       -0.38404352477840       -0.46012516205616
N           -1.00704779155365       -1.29947777079782       -0.09287110421379
C           -1.47088140165361       -2.66227967404424       -0.00201034575142
H            3.74667329968999        1.23713958564126        1.05051767232248
H            4.02466445864006        1.03702106803868       -0.69347038047477
H            2.71899497473261        2.11311018406817       -0.10643504625838
H            3.59467632154894       -1.63700781423632        0.02586994841170
H           -1.62073891559221        3.07829795408548        0.04370238807611
H           -2.82462512506113        2.17892767080450       -0.89593687711062
H           -2.84641126301877        2.07979342124076        0.87123899089112
H           -1.03779671172130       -3.20192359673937        0.85264301377296
H           -1.24219159872164       -3.21154736519383       -0.91264350517067
H           -2.54821668115494       -2.60358500523492        0.11263053585079
H            1.39738767628825       -2.93639007231439        0.02851764062199
