  72
        -99.35729550
 N         -2.5133854971        2.9596490321        3.0240235935
 C         -2.2563605595        2.2466752977        2.0272766647
 C         -3.1450276447        2.1446383585        0.8157854707
 C         -3.5532490634        0.6925429191        0.6175816168
 C         -4.1565776880        0.2936664735       -0.5776363960
 C         -4.5351067893       -1.0199702484       -0.7928357821
 O         -5.1133476560       -1.4898270454       -1.9252880775
 C         -5.5509178971       -0.5734481932       -2.8998791265
 C         -4.3102867333       -1.9875759121        0.2190461816
 O         -4.6944421359       -3.2501244968       -0.0812265835
 C         -4.6482725124       -4.2294504687        0.9299945181
 C         -3.7345349195       -1.5815887745        1.4108139936
 C         -3.3646100670       -0.2567009178        1.6068990043
 C         -2.2575156317        2.6046268978       -0.3950047300
 C         -1.4104548278        1.4944578343       -0.9101054888
 C         -0.2061971182        1.1781422000       -0.4220985364
 N          0.5130160630       -0.0127610011       -0.8786867854
 C          1.9845646766        0.1948735305       -0.8014140426
 C          2.8037519080       -0.7954865259       -1.6288226530
 C          4.2570946832       -0.5985049508       -1.2671698664
 C          4.9530429610        0.5065831803       -1.7207196645
 C          6.2596459707        0.7334773576       -1.3122403715
 C          6.8926516878       -0.1440971968       -0.4457423868
 O          8.1466981550       -0.0116555467        0.0299408607
 C          8.9073670375        1.1116068784       -0.3507956806
 C          6.1929458495       -1.2956284068        0.0023316818
 O          6.8884783500       -2.1115209724        0.8235030880
 C          6.3028166341       -3.3198110817        1.2446051703
 C          4.8850755108       -1.4957851834       -0.4058460623
 C          0.0684062422       -1.2012728855       -0.1166085178
 C         -4.4215944361        3.0228251812        0.8981139705
 C         -5.3269226275        2.5713826722        2.0422435471
 C         -4.1164350225        4.5119642240        1.0352787459
 H         -4.3487722811        1.0292205274       -1.3417819602
 H         -6.2348802528        0.1678786092       -2.4766093713
 H         -6.0792931477       -1.1676396340       -3.6429080884
 H         -4.7107073077       -0.0617554708       -3.3826272754
 H         -5.2514884122       -3.9399700777        1.7954017661
 H         -5.0658302957       -5.1299527271        0.4841224817
 H         -3.6207812383       -4.4289440347        1.2523587655
 H         -3.5819445733       -2.2874920457        2.2107755139
 H         -2.9497908783        0.0263906427        2.5613017668
 H         -2.9111646111        2.9596053498       -1.1901372026
 H         -1.6350872133        3.4355705938       -0.0629837174
 H          0.2610231687       -0.1694340654       -1.8545744521
 H         -1.8350587066        0.8824156982       -1.6938413974
 H         -1.3393461748        1.6438375955        1.9280274487
 H          0.2903713360        1.7232107325        0.3621456762
 H          2.2827687976        0.1297728957        0.2480002573
 H          2.1971381589        1.2067646427       -1.1527450601
 H          2.6503266191       -0.6107878078       -2.6939348898
 H          2.5176032827       -1.8239017234       -1.4088121679
 H          4.4882635691        1.2016199602       -2.4035400996
 H          6.7775136508        1.6037054123       -1.6798210273
 H          8.4281078051        2.0445522932       -0.0380691372
 H          9.0796286696        1.1325410079       -1.4309985886
 H          9.8602392760        1.0059775669        0.1640533329
 H          7.0651748111       -3.8239386433        1.8351075553
 H          5.4212053580       -3.1448515204        1.8704482311
 H          6.0289668000       -3.9509776133        0.3932519217
 H          4.3418594353       -2.3625725382       -0.0629078332
 H         -1.0150801111       -1.2933306697       -0.1841042958
 H          0.3400585298       -1.0847273664        0.9315220938
 H          0.5308579560       -2.1044164879       -0.5078640099
 H         -4.9665582982        2.8699946648       -0.0412583739
 H         -4.8330503190        2.7386028029        2.9937569854
 H         -5.5756620211        1.5166417183        1.9523275164
 H         -6.2499945148        3.1444280056        2.0244229400
 H         -3.5705457236        4.6968095844        1.9545463276
 H         -3.5389970165        4.8882254680        0.1947083571
 H         -5.0507795509        5.0656956750        1.0740381875
 H         -1.8267171321        2.9667524932        3.7729197062
