25
 energy: -42.137162069917 gnorm: 0.004075017988 xtb: 6.6.1 (8d0f1dd)
C            3.44056999367176        2.10973656875720        0.01470740891363
N            2.81172395820154        0.81421104192448        0.01370676182583
C            3.41918065595340       -0.36541039288369        0.01800656929180
N            2.51294238063528       -1.35732738216056        0.01400142251470
C            1.26086553792668       -0.79573873085978        0.00635205151199
C            1.46333044905824        0.59172072551203        0.00611002093515
C            0.32333734223760        1.48397478408618        0.00310223295156
O            0.38303324488823        2.69795870748456        0.00987148934725
N           -0.86686105011022        0.78015677755701       -0.00876057560071
C           -2.10107968851530        1.53906248132182       -0.01224838813025
C           -1.01581354754474       -0.63544336723276       -0.00405669345077
O           -2.13090079556132       -1.10517748726646       -0.00536896064158
N            0.10314203140682       -1.40255759305953        0.00126499255692
C           -4.29263673670064       -4.04755625660364       -0.01794589833938
H            4.04932166329645        2.23497444207954        0.91045312083920
H            4.07849683486168        2.22213531969937       -0.86226383289036
H            2.66290539397116        2.87353529259773       -0.00250706586252
H            4.48315516898732       -0.50841438884321        0.02410534719505
H           -1.85122346379042        2.59839662476199       -0.01065671277796
H           -2.68691510372823        1.28766231207423       -0.89754120116428
H           -2.69260828199705        1.28661709122138        0.86885238532058
H           -4.61254811457274       -4.48693489210031        0.90932477005246
H           -4.61870767406652       -4.47436672050406       -0.94618311252293
H           -3.66241460023791       -3.17238573836138       -0.01656290163955
H            2.70013591581025       -2.35059067764209        0.01540838762887
