72
 energy: -99.363932501285 gnorm: 0.007589522620 xtb: 6.6.1 (8d0f1dd)
N           -1.56299455332703        2.66947359289496        2.40044274012203
C           -1.49812293080899        1.81901958305666        1.48601039181056
C           -2.52815237920047        1.70090360288057        0.38350611520600
C           -3.24952047519968        0.37508161469511        0.49849019512010
C           -4.36943797388683        0.11569980954103       -0.46856578668470
C           -4.78307946186840       -1.31534588174330       -0.55406555194074
O           -5.55740243804358       -1.76604011832134       -1.54492142737267
C           -5.99060810593994       -0.89628958804411       -2.56569059491932
C           -4.43905862123723       -2.23002166032973        0.45055795164073
O           -4.95843541239760       -3.47199909601136        0.31508992044730
C           -4.65493216766759       -4.44979844552528        1.28488390522991
C           -3.58157599256950       -1.82383053759131        1.47265868203724
C           -2.96891574814456       -0.55726620063468        1.44852674882522
C           -1.74606482988731        1.78058038198882       -0.94143645876032
C           -1.69853171746313        0.72079704012899       -2.01069198318782
C           -0.44419916105345        1.05428345079879       -1.26614728538793
N            0.18731599648841        0.12678394357431       -0.38083269068126
C            1.58750956215511        0.38365385661887       -0.13551892604019
C            2.52658520449338        0.00478551131106       -1.30455138728890
C            3.95741135652197        0.15390620545818       -0.88713021736002
C            4.63930294035054        1.34809088328345       -1.07149120497261
C            5.95695705469304        1.48408326791683       -0.66516479702405
C            6.62280449852188        0.42750447100864       -0.05780310368076
O            7.89819840924728        0.44292533892534        0.36837854451274
C            8.67474948450485        1.60345710560249        0.18012641487668
C            5.92889343379274       -0.79891291524659        0.14606632145559
O            6.64520403268235       -1.77172084209228        0.74179273912107
C            6.05005208861485       -3.02801143101304        0.96381676773551
C            4.61153849301268       -0.90970640831495       -0.26970683163660
C           -0.16553258735586       -1.27071972912677       -0.49867312249943
C           -3.58850236324014        2.85153176941372        0.43476207378191
C           -4.43937066421714        2.75538115906780        1.70209483806433
C           -3.00068764665672        4.25976530582615        0.35814894445633
H           -5.25348103587973        0.67846164959190       -0.11685594708172
H           -6.56967741759784       -0.06022545686619       -2.16471883220443
H           -6.62475691765433       -1.49883016645893       -3.21297568510994
H           -5.14931729196778       -0.50954730695130       -3.14978515777206
H           -5.01507506438978       -4.15790166848214        2.27567118221953
H           -5.17748415746990       -5.34833085256618        0.96304455217138
H           -3.58033675217149       -4.65203861862651        1.32935535521709
H           -3.33025582064460       -2.50058894455101        2.27122812373554
H           -2.23419569297885       -0.35411745357310        2.21218555650482
H           -4.13912670791055        0.51963460124030       -1.45102592811376
H           -1.74776358519691        2.79072177737144       -1.32845442104535
H           -2.13311257391484       -0.24535559669258       -1.81835263830370
H           -1.78133021263614        1.03538977699075       -3.04141458316771
H           -0.67798514067999        1.10066555503402        1.37158556428392
H            0.27450615431152        1.67667751045079       -1.79079401809283
H            1.88279088873011       -0.18948617655681        0.74808980758011
H            1.71012273979379        1.44498480724808        0.09462463326031
H            2.31636995917969        0.64700487518712       -2.16087972945815
H            2.33219258105318       -1.02934908556502       -1.59189365534091
H            4.14611942577849        2.18224458680275       -1.54668568049748
H            6.46271242219614        2.42137603707653       -0.82991287453590
H            8.25795253132948        2.45672940349409        0.72366579462347
H            8.76693861906243        1.85506440370695       -0.88059864216296
H            9.65774974436851        1.36495765424539        0.58167762382934
H            6.81939588757911       -3.63722482599370        1.43414906947880
H            5.18920196972171       -2.95065576036450        1.63564217085791
H            5.74080491136236       -3.49696437846060        0.02458405255316
H            4.07877441186438       -1.83726451521841       -0.12937787216023
H           -0.01539741920337       -1.66310930167634       -1.51144009152873
H           -1.20884406435360       -1.41422549522284       -0.21879471487893
H            0.44823905964770       -1.84443737313207        0.19289036797758
H           -4.23442107687790        2.71950487208320       -0.44035103232350
H           -3.84131575038394        3.04093898156705        2.56150009467829
H           -4.81832186756474        1.75084060001816        1.87167442846563
H           -5.28482478699559        3.43491837827528        1.62875257435302
H           -2.27286798904502        4.41090593822207        1.14841835510178
H           -2.53486342938437        4.47053667957339       -0.60088043851158
H           -3.80429890777134        4.97919517464143        0.49374109570946
H           -0.80969937123733        2.68499419664310        3.08101445728786
