25
 energy: 0.000000000000 xtb: 6.6.1 (8d0f1dd)
C            3.23720163006194        1.16630919979326        0.08434469647475
N            2.29877817382611        0.07527477071623        0.03981603040599
C            2.58028210190900       -1.21425402444508        0.03006176031096
N            1.43813958087363       -1.93419271955128        0.00098261760884
C            0.39035688448383       -1.05887472636071       -0.00790371836672
C            0.93510056364412        0.21347819449412        0.01709077491437
C            0.09450143893243        1.40504303904423       -0.00410947031874
O            0.49712751527797        2.54126714362870       -0.00342325688240
N           -1.25076640035757        1.06271879480407       -0.03085478223738
C           -2.21907211982101        2.15522099834493       -0.05001256985998
C           -1.81739487048744       -0.20012725993278       -0.04692818574614
O           -2.99983886758376       -0.37846417018721       -0.07008878229737
N           -0.92618586207120       -1.30210215599479       -0.03682761578324
C           -1.46982264913417       -2.64643102187190       -0.06029820460571
H            3.71247264356769        1.21471455160235        1.06488849150277
H            4.00791497605742        1.03430808813993       -0.67357694370751
H            2.69910007168542        2.09770118228144       -0.09130154882931
H            3.56654120610678       -1.63682992603973        0.04233140067262
H           -1.67107961066214        3.09322851271934       -0.02552706933167
H           -2.82428953597071        2.09428624779827       -0.95318082946668
H           -2.87644029173232        2.07745725625962        0.81450067533302
H           -1.17061996399332       -3.19584890659852        0.83242232437030
H           -1.14560257411436       -3.17511610292205       -0.95688275822323
H           -2.55549792440841       -2.55659984320617       -0.07459039797972
H            1.38130855184625       -2.94313852034425       -0.01389874181052
25
 energy: -2.653438685377 xtb: 6.6.1 (8d0f1dd)
C            3.25046303093975        1.19293088420992        0.09387250109588
N            2.31828463101161        0.10565156225408        0.04148860563409
C            2.61765989799696       -1.21878452153250        0.03199434625884
N            1.44989986984394       -1.93570090028894        0.00013718807222
C            0.40505750262646       -1.06283085003659       -0.01151904945025
C            0.93898834799087        0.22059372215727        0.01612019896772
C            0.11235080191270        1.39456282003782       -0.00358726672249
O            0.50853589779983        2.56037597592432        0.00073792494930
N           -1.24791337423688        1.04882159471998       -0.03599945684274
C           -2.20965912850212        2.14273902601759       -0.06131646578075
C           -1.81245481784460       -0.20113618984383       -0.05049063184608
O           -3.00841337479164       -0.38150855084902       -0.08145792669777
N           -0.93550667999878       -1.30761688176376       -0.03391608315884
C           -1.53378988663613       -2.63522739597961       -0.04434531803034
H            3.74228224000204        1.22940912534921        1.06979438259723
H            4.01159697278534        1.07451097781460       -0.67911364263974
H            2.69981954779235        2.11870642149531       -0.06229057308895
H            3.60089106241833       -1.63414712666251        0.04857934849592
H           -1.65242217722383        3.07632383777162       -0.03367372456260
H           -2.80901466255341        2.08551609027120       -0.96938259277547
H           -2.87181810939923        2.06894298817929        0.80052863152027
H           -1.12119642648870       -3.23611663251030        0.77044207591919
H           -1.28275663214025       -3.14780195569066       -0.94342024729373
H           -2.65660104594398       -2.62950092456194       -0.02280639762475
H            1.39793118057552       -2.93968449431053       -0.01334193084887
25
 energy: 5.978567715539 xtb: 6.6.1 (8d0f1dd)
C            3.26492751869966        1.22658542911305        0.10892704336202
N            2.33903398301637        0.14001852977595        0.04511082702269
C            2.66138513231412       -1.21491300797486        0.03747011047781
N            1.47296328360701       -1.93060257765560        0.00129699212060
C            0.42295328330619       -1.07551526679960       -0.01265384343079
C            0.94165088637055        0.22428140455658        0.01594029003327
C            0.13830462085904        1.37493363805536       -0.00253467415528
O            0.51602026072215        2.56376085182492        0.00885380981848
N           -1.24182227859885        1.03204952691792       -0.04619804318987
C           -2.19328613561984        2.12825550845257       -0.08225424109198
C           -1.79664616600377       -0.20459904558290       -0.05884126325037
O           -3.00047992318770       -0.38506467660216       -0.10522573895928
N           -0.94616941411840       -1.32066170141686       -0.02451965305899
C           -1.62190541995987       -2.62647041371474       -0.01766113651252
H            3.78862438458680        1.24628414866019        1.07293542356941
H            4.01148323252279        1.14167141067488       -0.68792122366509
H            2.70116699962239        2.15078857182796       -0.00953034322244
H            3.64508836644542       -1.61415522982635        0.06077506700020
H           -1.62559147441302        3.05627121262147       -0.04866351021943
H           -2.78251109298020        2.07333184812887       -0.99766870992404
H           -2.86470223226933        2.05712729833888        0.77309481371150
H           -1.04089253582950       -3.30463857655729        0.67035659456590
H           -1.53005588923197       -3.10431733170222       -0.96031654429824
H           -2.78970925239535       -2.71303083547525        0.09797577905716
H            1.44238453047149       -2.93236211346876       -0.01171392961344
25
 energy: 18.729595453373 xtb: 6.6.1 (8d0f1dd)
C            3.27451497232674        1.25615092323377        0.12153869091848
N            2.35641355150120        0.16319279941113        0.04894449702682
C            2.69699462718438       -1.20470527989781        0.04320790610819
N            1.50493400024429       -1.92508853498010        0.00701345810899
C            0.44114812457343       -1.09421018324246       -0.00419459780191
C            0.94768256199387        0.22061454615315        0.01927231328426
C            0.15982971553221        1.36219715246430       -0.00001207273142
O            0.52035992535298        2.56089457542582        0.01638267803574
N           -1.23300114830490        1.02043289153073       -0.05689958684061
C           -2.17786705050413        2.11610801414681       -0.10507892083084
C           -1.77755109826239       -0.21336107651826       -0.06909984912475
O           -2.98473767794575       -0.39321607946179       -0.13329457679857
N           -0.94809234136251       -1.34117013936725       -0.00549398197983
C           -1.69320391988275       -2.62949751680371        0.01154208054379
H            3.83157134544121        1.25743936344877        1.07023733286142
H            4.00375080052099        1.21108484773481       -0.69956709406735
H            2.70044498741894        2.18141392321092        0.04661391202319
H            3.68664832864898       -1.58555452089950        0.07177056469683
H           -1.60366096250950        3.03988503751585       -0.06493197281076
H           -2.75572787689967        2.06084432949474       -1.02785023596515
H           -2.85874872736530        2.04533128880279        0.74286806393887
H           -0.98888642820863       -3.37429509561292        0.55466448449625
H           -1.80057725032791       -3.04744177134931       -0.98776961467864
H           -2.89355021756766       -2.76996969920063        0.23514241373665
H            1.50352642633802       -2.92805119306788       -0.00797199600236
25
 energy: 28.915866518994 xtb: 6.6.1 (8d0f1dd)
C            3.27966880082047        1.27678457150158        0.12666311764580
N            2.36901548307499        0.17339460749834        0.05031225493212
C            2.71992310448782       -1.19080777003182        0.04540238941439
N            1.53795870172290       -1.91923183967458        0.01619389838361
C            0.45539302690906       -1.11334119438807        0.01476747987495
C            0.95592021468299        0.21172269806363        0.02622401809520
C            0.17448474470349        1.35668537392675        0.00397027684944
O            0.52247322624453        2.55202105956945        0.02361031010231
N           -1.22292671660340        1.01362261419033       -0.06453823520616
C           -2.16522115318777        2.10698522271380       -0.12184083289163
C           -1.75966116094854       -0.22480992457076       -0.08076312019314
O           -2.96523408550485       -0.40352719954048       -0.16260319606136
N           -0.94538599964069       -1.36350263003335        0.01953514785741
C           -1.74328922876075       -2.63971327001015        0.03363523448672
H            3.86741112980553        1.26101891790123        1.05781677418655
H            3.98920676324465        1.26998367881763       -0.71578400803687
H            2.69911244647388        2.20315609237983        0.09372530836231
H            3.71828400430307       -1.55484018755797        0.07486160587166
H           -1.58858645481103        3.02842505537578       -0.07550229585174
H           -2.73376512941800        2.05105224897943       -1.04996633135409
H           -2.85329553034856        2.03492421039530        0.71989330697161
H           -1.00170261979717       -3.41755766590239        0.43986140437375
H           -2.00004947726742       -2.97695442884042       -0.96794663962691
H           -2.96489538760558       -2.82159586987753        0.32420554060361
H            1.56737596535651       -2.92486576871358       -0.00469951264228
25
 energy: 33.774707348660 xtb: 6.6.1 (8d0f1dd)
C            3.27988582379495        1.28204598797864        0.12609812348254
N            2.37404651516157        0.16906107375584        0.05014201169779
C            2.72311162421798       -1.17674053264871        0.04759284281707
N            1.56114434835171       -1.91386650187348        0.02823498831045
C            0.46163893353356       -1.12482698135113        0.03689999456382
C            0.96376086704436        0.20263344422721        0.03420081154578
C            0.17940580603529        1.35910447383311        0.00575570804478
O            0.52290257454441        2.54202062459291        0.02596575319220
N           -1.21364767490752        1.01104167748316       -0.06693954509738
C           -2.15855376874947        2.10144638993427       -0.13390538106591
C           -1.74839047754033       -0.23628197265792       -0.08353344132374
O           -2.94861768212462       -0.41449442363025       -0.18605108822850
N           -0.93931401581474       -1.37915910407153        0.04782505850586
C           -1.75583443075509       -2.65551395495696        0.04522185115813
H            3.88344004432701        1.25575237216131        1.04253677572536
H            3.97220786910669        1.29652007950708       -0.72561782154738
H            2.69959771349287        2.20637881886832        0.11743970894818
H            3.72871927072759       -1.53189663970041        0.07844114396598
H           -1.58469343921249        3.02384643289210       -0.08535371741912
H           -2.72148752044462        2.04401580008022       -1.06465460144067
H           -2.85107684129864        2.03075014555213        0.70386821136171
H           -1.01893305445345       -3.44029006981286        0.31931804145889
H           -2.12052939788581       -2.87249695112000       -0.93432201911723
H           -2.98954159836094       -2.86898888922148        0.39429500421537
H            1.61297317914586       -2.92103269764965        0.00357548239329
25
 energy: 37.263859396097 xtb: 6.6.1 (8d0f1dd)
C            3.27850081255019        1.27751002733435        0.12321965661727
N            2.37447903980182        0.16108270201605        0.05108098013019
C            2.71621012126375       -1.16754730949951        0.05462517483422
N            1.57006906400084       -1.91167734601643        0.04757641763256
C            0.46397453997855       -1.12502637991604        0.06175287585361
C            0.96835568427452        0.20046802185087        0.04353641045239
C            0.17844001757272        1.36284610431188        0.00447766380841
O            0.52415903213541        2.53958625769256        0.01910348911976
N           -1.20714032719240        1.00824234686392       -0.06586079155748
C           -2.15760243870921        2.09667148114327       -0.14819767597890
C           -1.74294551877759       -0.24457147552110       -0.07116353103279
O           -2.93832207467843       -0.42528490593204       -0.19722336729887
N           -0.92962224465597       -1.38212638948064        0.08805595677369
C           -1.73870247939435       -2.66570699901545        0.05331304064369
H            3.88373601169857        1.24610305522997        1.03291291015268
H            3.95916640144905        1.29190304779806       -0.73035208738781
H            2.69839581276463        2.19693703207356        0.11956023358516
H            3.72335059504023       -1.52334897454437        0.09106342133527
H           -1.59009730492081        3.02341567143450       -0.10368728030713
H           -2.71712313479393        2.03444937366276       -1.08051515705102
H           -2.85390709778943        2.03323724400841        0.68705972141043
H           -0.96831730056202       -3.48872051832450        0.17190330359729
H           -2.23380309922776       -2.72033159997409       -0.93207429427997
H           -2.97740871227245       -2.91149115809506        0.47992527113579
H            1.62836926838014       -2.91759070692901        0.02694155395883
25
 energy: 37.297210956132 xtb: 6.6.1 (8d0f1dd)
C            3.27513584992846        1.26967721496925        0.11669528271350
N            2.37059258655981        0.15057880956575        0.04851184721671
C            2.70369103031247       -1.16209841631766        0.05272762453738
N            1.56870094896802       -1.91345130385015        0.05887464552445
C            0.46148794415444       -1.12047337588865        0.07640613043067
C            0.96943652187296        0.20041839056114        0.05051707169958
C            0.17225277066204        1.36386275598667        0.00523787593739
O            0.52573042426427        2.53703371344312        0.01684152136860
N           -1.20289918735605        1.00462455815866       -0.06193834716243
C           -2.15831291793140        2.09300569686746       -0.14890779468764
C           -1.74271071546408       -0.25019101711186       -0.06538857741144
O           -2.93280791082998       -0.43229133736082       -0.20011219148194
N           -0.91960998409642       -1.37861884354574        0.10965953339170
C           -1.71169647565397       -2.67003938477112        0.04379684627205
H            3.88005589173476        1.23520928590472        1.02477673556438
H            3.94972722716904        1.27951568249719       -0.73944950541866
H            2.69295833248990        2.18716615226804        0.11414969838576
H            3.71000198885373       -1.52474839803413        0.09233838904942
H           -1.59566656386571        3.02374900471231       -0.10733674688517
H           -2.71786477780032        2.02919086540715       -1.08107837067264
H           -2.85499783937852        2.03323048411231        0.68629537803651
H           -0.98472946312431       -3.46642756651011        0.08970070192848
H           -2.22872263763943       -2.64015758603879       -0.87001418525338
H           -2.93847222425989       -2.94192334902730        0.47376252126064
H            1.62093384836625       -2.91781343382552        0.04096781180332
25
 energy: 38.121122129613 xtb: 6.6.1 (8d0f1dd)
C            3.27655161584739        1.27136058623886        0.11472791346956
N            2.37203389296089        0.15378401473090        0.04767269896322
C            2.70811926222233       -1.16511262851718        0.05470352065709
N            1.56747685765585       -1.91663515073649        0.06834789565088
C            0.46419702707819       -1.11911664200476        0.08621668973991
C            0.96885922959122        0.20318509481594        0.05407419844575
C            0.17180669420634        1.36105223058847        0.00549766971069
O            0.52725538142656        2.53999672184913        0.00956030984929
N           -1.20380390955771        1.00207109790678       -0.06049135780849
C           -2.15923357431601        2.09035814625205       -0.15285721221812
C           -1.74108552444264       -0.25090491450750       -0.05672940774426
O           -2.93174583322462       -0.43564295147035       -0.19688140740021
N           -0.91561179389152       -1.37719095974893        0.13108241345687
C           -1.70923590436552       -2.66679262364596        0.04064007096452
H            3.88000904519825        1.23930447455401        1.02560674088469
H            3.95406588259449        1.27673530057014       -0.74159501584689
H            2.69165373352390        2.18846080830268        0.10752109873230
H            3.71238920339354       -1.53053366738179        0.09900835684063
H           -1.59642714166266        3.02151325336009       -0.11462177207154
H           -2.71785178525615        2.02230713120382       -1.08554103646880
H           -2.85630277995379        2.03297761422897        0.68219930202302
H           -0.96148754172990       -3.48006779405323        0.02671518157067
H           -2.27349449665502       -2.58322547775555       -0.86217328226452
H           -2.92941239223825       -2.96796736380837        0.49032477458774
H            1.61348951953091       -2.92088769879983        0.05402555242326
25
 energy: 37.622881074401 xtb: 6.6.1 (8d0f1dd)
C            3.27797185135156        1.27339115014914        0.11509917456003
N            2.37321800375365        0.15889613173579        0.04587275204199
C            2.71526510202011       -1.17212642879962        0.05362107839681
N            1.56291670959024       -1.92076459944076        0.06945935528414
C            0.46692037882334       -1.11712052658590        0.08370176001536
C            0.96754089826280        0.20617128224051        0.05247812698736
C            0.17028134392521        1.35725206581931        0.00407105584280
O            0.52802894221128        2.54320862810012        0.00197382608740
N           -1.20743317562838        1.00028524245012       -0.05941863815505
C           -2.16163696272320        2.08898815401828       -0.15183097729098
C           -1.74101377532078       -0.24994905194746       -0.05018377811798
O           -2.93417951247790       -0.43749896246303       -0.18627201745402
N           -0.91291749048340       -1.37610438463436        0.13937777432876
C           -1.70513042409756       -2.66385467550944        0.03140932720394
H            3.87200375454391        1.25020092631634        1.03408883202657
H            3.96758847978706        1.26915744771104       -0.73383917054296
H            2.69283375569388        2.19097619790415        0.09244656713694
H            3.71618491121839       -1.54066260134030        0.10473704590190
H           -1.59678475736485        3.01912353267774       -0.11616927598672
H           -2.72120135323663        2.01861398859970       -1.08397016780742
H           -2.85744223157689        2.03202743450044        0.68421074597173
H           -0.95409298271367       -3.46523730662912        0.00535776383376
H           -2.29292028638246       -2.56292996185382       -0.85683155590044
H           -2.91155921335568       -2.98776620552811        0.48967263072703
H            1.59777270211604       -2.92524887531886        0.05797166105630
25
 energy: 37.106496245341 xtb: 6.6.1 (8d0f1dd)
C            3.27753790294489        1.27195290324729        0.11534998308659
N            2.37189862931842        0.15934516680624        0.04534328824567
C            2.71640966377258       -1.17599441207558        0.05190862203154
N            1.55832017285602       -1.92186439272463        0.06892112520144
C            0.46602771542353       -1.11552588920091        0.08137498543410
C            0.96676386591908        0.20622389078090        0.05125393483857
C            0.16823114273750        1.35666857766394        0.00169199686235
O            0.52822958552462        2.54289461124084       -0.00386926130685
N           -1.20980513791048        1.00185356144282       -0.05889559375222
C           -2.16307744373640        2.09092027332590       -0.15191564418582
C           -1.74241358969887       -0.24773077975004       -0.04400302766851
O           -2.93679483343456       -0.43671786688192       -0.17378641934405
N           -0.91366804986781       -1.37515516855115        0.14652007897626
C           -1.70243897180531       -2.66311752115504        0.02476749828551
H            3.86346260070116        1.25632238508493        1.04081762187146
H            3.97664388755651        1.26002697370281       -0.72699081830943
H            2.69396100890536        2.19093870660830        0.08023076101903
H            3.71547813120313       -1.54551170587658        0.10849278488686
H           -1.59693666886168        3.02016593949684       -0.11819560657980
H           -2.72349366971522        2.01915454813851       -1.08347165964159
H           -2.85814657899207        2.03478312937525        0.68474299248164
H           -0.94610163614212       -3.46495134371704       -0.01256913514264
H           -2.28992053502194       -2.54627116476092       -0.84706268512124
H           -2.89468451540256       -3.00266873797086        0.48850185385895
H            1.58673199166233       -2.92671308207801        0.05787622011946
25
 energy: 35.934084617934 xtb: 6.6.1 (8d0f1dd)
C            3.27696593447534        1.27071605844829        0.11537081997701
N            2.37123711463918        0.15876685297174        0.04547949425475
C            2.71728000716687       -1.17694161371241        0.05000859925421
N            1.55774460169988       -1.92165520897419        0.06927043005377
C            0.46678697047999       -1.11502811566551        0.08035685049936
C            0.96772327772884        0.20515380427965        0.05104003557192
C            0.16697913231832        1.35671540521128       -0.00008512437388
O            0.52756202741707        2.54155349180242       -0.00708097402515
N           -1.21015728974274        1.00175986341949       -0.05877006861367
C           -2.16388341696341        2.09056487130549       -0.15268149172424
C           -1.74178648056633       -0.24868152999136       -0.03947533621517
O           -2.93675755330059       -0.43950563021656       -0.16508433304635
N           -0.91184035830364       -1.37665305505946        0.15294178268381
C           -1.69747947055275       -2.66579571063367        0.02069377134853
H            3.85683131591310        1.26022860522432        1.04550259047128
H            3.98212384234222        1.25307557467130       -0.72242054809052
H            2.69455238878049        2.19069009142607        0.07148679005168
H            3.71559145146537       -1.54576294716646        0.11162764926692
H           -1.59798448618040        3.01986918801086       -0.11989787961333
H           -2.72478305990203        2.01854631318286       -1.08392946945287
H           -2.85898779419094        2.03545870338769        0.68406423731676
H           -0.95050813601297       -3.46090858021311       -0.02452577421455
H           -2.30301506557758       -2.52614289652069       -0.84440859788978
H           -2.87518724752173       -3.01036099374181        0.49001980105090
H            1.58320696232449       -2.92663393927432        0.05753064160583
25
 energy: 35.433865601817 xtb: 6.6.1 (8d0f1dd)
C            3.27627861551525        1.27060959694779        0.11519608303595
N            2.37062839769046        0.15840906621500        0.04612215589754
C            2.71702775359162       -1.17604672886600        0.04858340482026
N            1.55898588715185       -1.92103903086353        0.06945642258230
C            0.46661367422504       -1.11607391597925        0.08002373322324
C            0.96796297028284        0.20395106095987        0.05169909785176
C            0.16761527644438        1.35694443301754        0.00087360479871
O            0.52712446450205        2.54058109934298       -0.00526444986808
N           -1.20927075078508        1.00146245605422       -0.05898114910933
C           -2.16324048934255        2.09000796163903       -0.15315187923221
C           -1.74129113612913       -0.24915234657390       -0.03964992534832
O           -2.93647084327266       -0.43936925288351       -0.16628444680878
N           -0.91240118115008       -1.37787267758528        0.15221553472591
C           -1.70159550231370       -2.66585416827491        0.02007845423760
H            3.85712577854979        1.25955255092178        1.04511765836464
H            3.98080908864086        1.25354892948358       -0.72337036710771
H            2.69434864154205        2.19128137116304        0.07250667358176
H            3.71610877956878       -1.54287447284366        0.11162324039379
H           -1.59782094401638        3.01954825360288       -0.11941544420584
H           -2.72362333848761        2.01870404449566       -1.08479416652446
H           -2.85903818155749        2.03472309451214        0.68307454296103
H           -0.95336671644491       -3.46218216846911       -0.02258498781828
H           -2.30488145124479       -2.52876921285937       -0.84335970918630
H           -2.87217779636050       -3.00497087388092        0.49120670243901
H            1.58676367133598       -2.92609046710418        0.05611311244304
25
 energy: 33.586500487298 xtb: 6.6.1 (8d0f1dd)
C            3.27481470572059        1.26993848069625        0.11486780352109
N            2.36877610529069        0.15764966389032        0.04740576930820
C            2.71567092965038       -1.17486730736437        0.04466192969548
N            1.56020064599297       -1.92027123395091        0.07064061821727
C            0.46523096457819       -1.11802934883095        0.07938257987084
C            0.96752443190447        0.20182148253191        0.05269116828510
C            0.16851807624856        1.35726992436043        0.00244527086253
O            0.52604871620638        2.53919589356151       -0.00217941532900
N           -1.20804624981314        1.00067264930512       -0.05986303581657
C           -2.16202113531458        2.08901534650172       -0.15436753251413
C           -1.74099544473452       -0.24992460581432       -0.04046035428880
O           -2.93637604179974       -0.43823422160810       -0.16828427764947
N           -0.91446641624010       -1.38023255081372        0.15152487649257
C           -1.70885855925781       -2.66669552934386        0.01794476518774
H            3.85758699188917        1.25797738177011        1.04410761498871
H            3.97822462351336        1.25383215449857       -0.72485013260770
H            2.69440737354345        2.19198128804483        0.07440690221571
H            3.71618386584438       -1.53798269362470        0.11416706150183
H           -1.59713323221252        3.01888436718125       -0.11888671819290
H           -2.72106553892270        2.01890405242756       -1.08691553017575
H           -2.85912810078762        2.03336479391590        0.68077869094616
H           -0.95767004776998       -3.46559284870479       -0.02266481779595
H           -2.31070015783182       -2.52612427612923       -0.84362382923956
H           -2.85698565887881       -2.99811019790347        0.50041360211310
H            1.59247382111684       -2.92541406242516        0.05369088655080
25
 energy: 32.212424949734 xtb: 6.6.1 (8d0f1dd)
C            3.27458632057313        1.26985358685399        0.11472325716884
N            2.36841582507500        0.15763087897943        0.04783217400025
C            2.71518880360079       -1.17511248463918        0.04229442900993
N            1.55994028479885       -1.92050948988998        0.07132315917890
C            0.46463619019158       -1.11855977584230        0.07953652677057
C            0.96693537489027        0.20165634991672        0.05280753829896
C            0.16873483938759        1.35705663481362        0.00293201664851
O            0.52565529160341        2.53937981359678       -0.00132039012245
N           -1.20824224005306        1.00027553248222       -0.06012118982051
C           -2.16205496493318        2.08871487340720       -0.15451947341314
C           -1.74125468353913       -0.25006077957614       -0.04104650298168
O           -2.93660829553761       -0.43759981540635       -0.16945118496534
N           -0.91532660100725       -1.38054911816025        0.15065433229556
C           -1.71137450421027       -2.66646878827621        0.01709156558680
H            3.85864963565528        1.25703717289348        1.04300518600593
H            3.97678521623197        1.25481240562277       -0.72594731542016
H            2.69415797802348        2.19186320884851        0.07608034187180
H            3.71578494746917       -1.53755389268510        0.11660946835989
H           -1.59701651234533        3.01851041360260       -0.11874778348889
H           -2.72077887372022        2.01877257339871       -1.08723047438123
H           -2.85931239385991        2.03296371561494        0.68043780305403
H           -0.96079209458598       -3.46676633768478       -0.02025669194548
H           -2.31275734475057       -2.52735961014838       -0.84588778879661
H           -2.84520293234140       -2.99339575018592        0.50348259151966
H            1.59346540131952       -2.92556271536447        0.05275230171310
25
 energy: 30.902654538021 xtb: 6.6.1 (8d0f1dd)
C            3.27474520053463        1.26970062311281        0.11487316236816
N            2.36861357431539        0.15732038263498        0.04782937830606
C            2.71430429787289       -1.17592507055847        0.04023250464966
N            1.55868523395101       -1.92125966691268        0.07178349732589
C            0.46393729302180       -1.11844752469290        0.08016157427211
C            0.96611885763669        0.20226724992564        0.05247702789291
C            0.16844457998416        1.35660184986701        0.00281151273034
O            0.52566941432579        2.53993171632942       -0.00129783226285
N           -1.20915720734361        1.00021451899585       -0.06014293826287
C           -2.16260220483229        2.08901410424131       -0.15446341279094
C           -1.74215895713971       -0.24991120248961       -0.04219851729350
O           -2.93713844181159       -0.43720910937225       -0.17137895903159
N           -0.91595011716090       -1.37961838154918        0.14919408837224
C           -1.71154532103080       -2.66568275486817        0.01683153863201
H            3.86043988659347        1.25524126246985        1.04138977251301
H            3.97475863679264        1.25659410434329       -0.72708569270976
H            2.69350907385746        2.19081599595142        0.07898948534781
H            3.71428300553951       -1.53946828433684        0.12015338735374
H           -1.59697221411943        3.01848728428368       -0.11907403753589
H           -2.72134065900133        2.01874685659258       -1.08708833876726
H           -2.85957857863827        2.03342915039936        0.68065742438361
H           -0.96022348185891       -3.46620064154606       -0.02083162672629
H           -2.31339579841425       -2.52776223829372       -0.84892857734978
H           -2.83339878722502       -2.99174251113090        0.50934136265190
H            1.59216738208678       -2.92610911122449        0.05279811207856
25
 energy: 30.641275599865 xtb: 6.6.1 (8d0f1dd)
C            3.27493994284053        1.26978855400047        0.11496904103863
N            2.36907691536862        0.15713377908752        0.04750740808978
C            2.71421374951233       -1.17645910235206        0.03968250861750
N            1.55796239372774       -1.92169594975709        0.07157073532114
C            0.46395266869666       -1.11810756067990        0.08084229765440
C            0.96595846803555        0.20272727608789        0.05227053155809
C            0.16806218529630        1.35632387308653        0.00249342288171
O            0.52592358251415        2.54005733280320       -0.00201869653222
N           -1.20976314964478        1.00050561555131       -0.05975226874063
C           -2.16302820464833        2.08946760248591       -0.15423809877017
C           -1.74261156111294       -0.24966771251154       -0.04236635433193
O           -2.93740861609181       -0.43740844716315       -0.17152136176515
N           -0.91577152195960       -1.37877624704691        0.14894317197349
C           -1.71031970345518       -2.66515209958733        0.01745230283122
H            3.86104423454332        1.25478182252865        1.04088874034516
H            3.97421251405439        1.25751452672881       -0.72736268825010
H            2.69292989800634        2.19022887867095        0.07989668286750
H            3.71354031326763       -1.54126070657524        0.12146982729749
H           -1.59705200324452        3.01871918566687       -0.11939026247146
H           -2.72204146938465        2.01875020948427       -1.08667159672075
H           -2.85970598131447        2.03413441463160        0.68114455968149
H           -0.95940926084735       -3.46511943732312       -0.02229783306845
H           -2.31259531558237       -2.52906089774984       -0.84936717229706
H           -2.83033054814718       -2.99188463897101        0.50950282567501
H            1.59043513750565       -2.92651166892488        0.05338617326258
25
 energy: 30.530857310339 xtb: 6.6.1 (8d0f1dd)
C            3.27490088647241        1.26980024776406        0.11510855204668
N            2.36938926076632        0.15673277488145        0.04703533936561
C            2.71410764536133       -1.17683797655171        0.03887073791431
N            1.55733167764069       -1.92202793240067        0.07091953409229
C            0.46392077620219       -1.11788534507890        0.08166043548394
C            0.96588394348874        0.20285393243219        0.05226526349000
C            0.16756396235150        1.35610195209828        0.00223513884176
O            0.52619445312382        2.53979576169108       -0.00287434297745
N           -1.21023337453927        1.00096444274188       -0.05908865032576
C           -2.16325720031375        2.09005731857639       -0.15413446380902
C           -1.74310805011417       -0.24936697763110       -0.04226433080276
O           -2.93777684275526       -0.43764806711604       -0.17139120503441
N           -0.91571639885452       -1.37803548644478        0.14891614808620
C           -1.70910174943182       -2.66480732827306        0.01863851873828
H            3.86128454527680        1.25434208245473        1.04065184562223
H            3.97369920486533        1.25828044206478       -0.72741340165107
H            2.69226555069073        2.18968847857617        0.08061550922952
H            3.71275736647971       -1.54291606203923        0.12277586650148
H           -1.59698885973866        3.01911532512539       -0.11983893836562
H           -2.72249681091218        2.01886429632026       -1.08642858146432
H           -2.85978836520953        2.03515604106695        0.68143060339556
H           -0.95757383900289       -3.46316928407494       -0.02629934928902
H           -2.31103891967729       -2.53015458815867       -0.84920022645682
H           -2.82866188240859       -2.99296919867084        0.51048249809870
H            1.58865768817443       -2.92690624718175        0.05436139541692
25
 energy: 30.493519104317 xtb: 6.6.1 (8d0f1dd)
C            3.27468503639397        1.26976272546508        0.11497548894575
N            2.36910671255557        0.15679499518685        0.04704193376006
C            2.71426533271726       -1.17666159683838        0.03824853408183
N            1.55758056343063       -1.92187857519160        0.07077015360147
C            0.46391663932374       -1.11809175844817        0.08186819926609
C            0.96591999434814        0.20251687364434        0.05262038875732
C            0.16761497959658        1.35616219127924        0.00244738719946
O            0.52608945133183        2.53958177562739       -0.00281029591411
N           -1.21000301632481        1.00093827377167       -0.05894333027972
C           -2.16305831110877        2.08992030387430       -0.15425278910913
C           -1.74295811577319       -0.24937269899389       -0.04181301096820
O           -2.93773666118718       -0.43753780606861       -0.17076804940051
N           -0.91587638445202       -1.37837834964525        0.14948106428011
C           -1.70985132263918       -2.66500460937724        0.01906736791056
H            3.86078280590221        1.25467669809637        1.04091690054942
H            3.97398426993485        1.25779813971690       -0.72725850858494
H            2.69238931536263        2.18996234023116        0.07994920330911
H            3.71300406751223       -1.54228782267950        0.12280906215464
H           -1.59695470431388        3.01906247327222       -0.11985938327554
H           -2.72214718795644        2.01875699285860       -1.08664930228325
H           -2.85979985302212        2.03508710386892        0.68115656885315
H           -0.95831677666626       -3.46321131402694       -0.02764082192499
H           -2.31107804775929       -2.53028377724064       -0.84890377580115
H           -2.82844388571978       -2.99245475269902        0.51007060199855
H            1.58909976644939       -2.92682922351188        0.05451030902128
