25
 energy: 0.000000000000 xtb: 6.6.1 (8d0f1dd)
C            3.23720163006194        1.16630919979326        0.08434469647475
N            2.29877817382611        0.07527477071623        0.03981603040599
C            2.58028210190900       -1.21425402444508        0.03006176031096
N            1.43813958087363       -1.93419271955128        0.00098261760884
C            0.39035688448383       -1.05887472636071       -0.00790371836672
C            0.93510056364412        0.21347819449412        0.01709077491437
C            0.09450143893243        1.40504303904423       -0.00410947031874
O            0.49712751527797        2.54126714362870       -0.00342325688240
N           -1.25076640035757        1.06271879480407       -0.03085478223738
C           -2.21907211982101        2.15522099834493       -0.05001256985998
C           -1.81739487048744       -0.20012725993278       -0.04692818574614
O           -2.99983886758376       -0.37846417018721       -0.07008878229737
N           -0.92618586207120       -1.30210215599479       -0.03682761578324
C           -1.46982264913417       -2.64643102187190       -0.06029820460571
H            3.71247264356769        1.21471455160235        1.06488849150277
H            4.00791497605742        1.03430808813993       -0.67357694370751
H            2.69910007168542        2.09770118228144       -0.09130154882931
H            3.56654120610678       -1.63682992603973        0.04233140067262
H           -1.67107961066214        3.09322851271934       -0.02552706933167
H           -2.82428953597071        2.09428624779827       -0.95318082946668
H           -2.87644029173232        2.07745725625962        0.81450067533302
H           -1.17061996399332       -3.19584890659852        0.83242232437030
H           -1.14560257411436       -3.17511610292205       -0.95688275822323
H           -2.55549792440841       -2.55659984320617       -0.07459039797972
H            1.38130855184625       -2.94313852034425       -0.01389874181052
25
 energy: -3.453507547699 xtb: 6.6.1 (8d0f1dd)
C            3.24953177805593        1.19124333329157        0.09321243359742
N            2.31696684988195        0.10435454042384        0.04101377197368
C            2.61531166625341       -1.22074108854066        0.03159814561439
N            1.44677528757983       -1.93640856387653        0.00001412067735
C            0.40369573771456       -1.06210273085279       -0.01126372336089
C            0.93774873434337        0.22070051472972        0.01598876186450
C            0.11093731333456        1.39456608025286       -0.00376354479262
O            0.50722643695633        2.56045354736528        0.00004103387563
N           -1.24961017867805        1.04876673441043       -0.03535056022465
C           -2.21092358958214        2.14306462614420       -0.06015629562223
C           -1.81430899770245       -0.20124464904293       -0.04982643383829
O           -3.01047997344143       -0.38151823473734       -0.07985507569109
N           -0.93562227501762       -1.30700333124457       -0.03429295313979
C           -1.52531161507155       -2.63681603074113       -0.04676987789867
H            3.73998217819047        1.22892491783978        1.06980190755434
H            4.01148435696434        1.07129620983833       -0.67871560164518
H            2.69920939282745        2.11690353768768       -0.06498700054364
H            3.59794672638300       -1.63768734308730        0.04783450827323
H           -1.65262018382375        3.07604413750363       -0.03290827355433
H           -2.81083631403404        2.08638166518551       -0.96791394351111
H           -2.87262727395516        2.06997082343906        0.80212697576651
H           -1.12767745019077       -3.23115966574070        0.77889218704272
H           -1.26565105506759       -3.15148376680383       -0.94781856881613
H           -2.64158768391757       -2.61711690511018       -0.02638694565026
H            1.39265479993313       -2.94035975616191       -0.01348115180363
25
 energy: 2.066311184377 xtb: 6.6.1 (8d0f1dd)
C            3.26228601380379        1.22237773868126        0.10767479737973
N            2.33567720892923        0.13597866796328        0.04393710106656
C            2.65485637502933       -1.21934488941468        0.03609781115536
N            1.46514577959067       -1.93227242884484        0.00043882321256
C            0.41935839268582       -1.07343407483851       -0.01299135544486
C            0.93914234038415        0.22414984059114        0.01559148196844
C            0.13434937924116        1.37476138251972       -0.00283159072880
O            0.51230964535599        2.56284034529040        0.00715230972686
N           -1.24577724993711        1.03165820396509       -0.04448771457260
C           -2.19599281946966        2.12906938736255       -0.07990228395062
C           -1.80144843208222       -0.20510784799543       -0.05673946197251
O           -3.00526105136738       -0.38530970758338       -0.10050525364734
N           -0.94615789405893       -1.31894335043717       -0.02622833886885
C           -1.60141757638498       -2.62982111740326       -0.02492704721075
H            3.78312654383839        1.24493347834327        1.07303150063736
H            4.01076991602478        1.13504434692146       -0.68679209643483
H            2.69920079050688        2.14655162756997       -0.01467953404727
H            3.63715534621455       -1.62277760726943        0.05891332546115
H           -1.62524151584877        3.05531473482662       -0.04725034932664
H           -2.78627212701815        2.07554262337271       -0.99475359258358
H           -2.86664533729453        2.06001693675615        0.77623508637746
H           -1.05545351585941       -3.29372462071623        0.69124817131727
H           -1.48803474824842       -3.11312009508747       -0.97115090885152
H           -2.75208013041765       -2.68135736198762        0.09225257252104
H            1.42861933431864       -2.93399761041364       -0.01229955703633
25
 energy: 10.870076784277 xtb: 6.6.1 (8d0f1dd)
C            3.26962693327021        1.24943508494910        0.12031857012394
N            2.35080593224570        0.15646808987065        0.04738805601059
C            2.68642534064573       -1.21173097953565        0.04093584657738
N            1.49249293906590       -1.92813966204669        0.00505677763055
C            0.43498480506582       -1.09110406338405       -0.00612974757369
C            0.94362373048809        0.22001143046381        0.01866046087776
C            0.15356021892053        1.36148783506412       -0.00035124021313
O            0.51452900694420        2.55886325925739        0.01427309845217
N           -1.23916511536474        1.01976520935096       -0.05442585352936
C           -2.18163796828102        2.11778747142691       -0.10238778888368
C           -1.78543080091596       -0.21372620601070       -0.06572722475877
O           -2.99234401879010       -0.39304256144318       -0.12531352030944
N           -0.94854371108599       -1.33772001992960       -0.00940337130724
C           -1.66405847336346       -2.63221119091740       -0.00104574319464
H            3.82327302790729        1.25391002278648        1.07076919685492
H            4.00125478649503        1.20217243128056       -0.69812041022728
H            2.69604760596965        2.17480003867194        0.04124213962797
H            3.67379639161397       -1.59904801067828        0.06920053727293
H           -1.60250531787848        3.03866499916127       -0.06349636321126
H           -2.76048844218960        2.06468803810784       -1.02470686107487
H           -2.86197538735330        2.05056544139261        0.74626549983098
H           -1.00279313973834       -3.36075325240602        0.58692353371327
H           -1.73643534774850       -3.06165619244211       -1.00584853028506
H           -2.83457324444784       -2.71938190702237        0.23220239093924
H            1.48174491646136       -2.93107670379560       -0.00924555719599
25
 energy: 17.135186050688 xtb: 6.6.1 (8d0f1dd)
C            3.27219371291177        1.26819398224689        0.12586477000733
N            2.36133067628808        0.16474845454477        0.04880686431382
C            2.70650098127193       -1.20024659638845        0.04241569979257
N            1.52177723855821       -1.92424026752512        0.01316349992109
C            0.44707482446201       -1.10971156705272        0.01084337434363
C            0.95026413464031        0.21055621458635        0.02549042924095
C            0.16633796721828        1.35517920672613        0.00396028253848
O            0.51543985059787        2.54954381233559        0.02186278218681
N           -1.23091994220623        1.01270365115647       -0.06165977460399
C           -2.16985035480170        2.10950050201558       -0.11942444433747
C           -1.77034443262339       -0.22458552349192       -0.07650261059105
O           -2.97585668926179       -0.40226018009095       -0.15203954906530
N           -0.94613247161179       -1.35814721455959        0.01332389397737
C           -1.70886480628288       -2.63964696203952        0.01761358935112
H            3.85692905264199        1.25465267478501        1.05892326630928
H            3.98380789292665        1.26006389044577       -0.71474166811941
H            2.69116560674814        2.19458055567746        0.08992067385524
H            3.70176786566971       -1.57235159663365        0.07175829071569
H           -1.58704999219300        3.02725852121021       -0.07424839498666
H           -2.73888448037555        2.05635814906579       -1.04751865299593
H           -2.85799975014074        2.04215329034021        0.72260385443021
H           -1.01019731127840       -3.40499607550132        0.48521358927848
H           -1.92222377046749       -3.00098528652104       -0.99735222865839
H           -2.88317072247971       -2.74943489308981        0.32542552971052
H            1.53911958772384       -2.92985814007018       -0.00666917046711
25
 energy: 19.369563406394 xtb: 6.6.1 (8d0f1dd)
C            3.26996148582313        1.27386043345585        0.12543445127200
N            2.36509454190040        0.15981326791203        0.04858879461982
C            2.70958481844969       -1.18657355094462        0.04331724156268
N            1.54525359475623       -1.92045515322416        0.02468803041024
C            0.45202069472853       -1.12375351303034        0.03317074251894
C            0.95680746068394        0.19930807510300        0.03414881244779
C            0.17107698103704        1.35602798452329        0.00729259669774
O            0.51573323806240        2.53784308341469        0.02706734307788
N           -1.22210134868457        1.00985995487502       -0.06453187011262
C           -2.16256609196618        2.10431790185838       -0.13200775026481
C           -1.75994183527759       -0.23578954840996       -0.08193583820215
O           -2.96019095916212       -0.41146251437735       -0.17816240741891
N           -0.94101842765755       -1.37468467695976        0.04079281947108
C           -1.72683813527457       -2.65135920906844        0.02920973850586
H            3.87564245294497        1.24622630217551        1.04122200393470
H            3.96105033627829        1.29276310908617       -0.72833186932623
H            2.68771445211648        2.19828358032241        0.12079305844072
H            3.71273597226327       -1.54862877446955        0.07336602852003
H           -1.58185444721266        3.02238197631943       -0.08304399149563
H           -2.72462009208903        2.05032885859870       -1.06356672220181
H           -2.85627234420495        2.03787374626926        0.70502551321359
H           -1.03252415367700       -3.43093851828620        0.37471740159058
H           -2.04072763297073       -2.91013115278704       -0.96454400728483
H           -2.88906337845435       -2.77786140526434        0.39464465717332
H            1.58725748552304       -2.92822165492005       -0.00032088100271
25
 energy: 21.362245368609 xtb: 6.6.1 (8d0f1dd)
C            3.26690668823810        1.27094713115730        0.12361362425169
N            2.36531174620950        0.15282651664889        0.05002336662647
C            2.70479528506216       -1.17670332034211        0.05016671800442
N            1.55675468464816       -1.91901118301816        0.04402970914344
C            0.45396263844977       -1.12784840046364        0.05818509855434
C            0.96047012164559        0.19460787134688        0.04437016274196
C            0.17135297928949        1.35818547662980        0.00795863412828
O            0.51790686911243        2.53412802314339        0.02423093328701
N           -1.21524716452006        1.00663942567937       -0.06413582578317
C           -2.16045020528136        2.09916785514361       -0.14872726950900
C           -1.75399190128876       -0.24413935825888       -0.07244793288339
O           -2.94980046281766       -0.42124874949702       -0.19741585893027
N           -0.93352822865048       -1.38025473367802        0.08051148597182
C           -1.72238037406552       -2.65773071360682        0.03931076011820
H            3.88060514997114        1.23351918249867        1.02808865911251
H            3.94079627746919        1.29661829105141       -0.73600107115652
H            2.68417158956184        2.18944527958188        0.13278198237810
H            3.71062258445277       -1.53630515531145        0.08618423079875
H           -1.58595202616522        3.02124678370740       -0.10178545923565
H           -2.71678477401021        2.04074191658156       -1.08322679541704
H           -2.85980065006943        2.03939578887413        0.68414776618461
H           -0.97871538389735       -3.48978851049268        0.22771837749540
H           -2.17182866552859       -2.76415017297488       -0.97212705603251
H           -2.86405399119962       -2.80549262399141        0.49971119867168
H            1.61109188132021       -2.92576801823732        0.02186845762616
25
 energy: 18.551108871296 xtb: 6.6.1 (8d0f1dd)
C            3.26366825713528        1.26260173296699        0.11731562491820
N            2.36095755279773        0.14437701398133        0.04827892738228
C            2.69349702996334       -1.17331137781887        0.04945338868618
N            1.55316267434878       -1.92103351034434        0.05520549704214
C            0.45093680010111       -1.12327142811379        0.07076495801358
C            0.95999220177438        0.19527501795766        0.05105268674203
C            0.16548213168809        1.35892703689930        0.00973895835935
O            0.51974229988393        2.53365055984472        0.02349406131503
N           -1.21264717849938        1.00402646807563       -0.05940915425773
C           -2.16240240184662        2.09617648951080       -0.14976179252504
C           -1.75443428097641       -0.24769654354924       -0.06651053862679
O           -2.94599720751081       -0.42759146815690       -0.20222756046978
N           -0.92653844487246       -1.37570117343300        0.09866724701833
C           -1.70210763838274       -2.65724545233113        0.03131532720759
H            3.87793867018896        1.22096562743611        1.01884750125140
H            3.92956715470561        1.28290889092815       -0.74526117645038
H            2.67947606587695        2.17820839607581        0.12859169665836
H            3.69778488317115       -1.53881412321073        0.08913453702769
H           -1.59288975081145        3.02232337822287       -0.10579189144004
H           -2.71806775890093        2.03529981476235       -1.08452179394717
H           -2.86264182500268        2.03995027696409        0.68262312541734
H           -0.98626691185456       -3.47491649379655        0.16163015732576
H           -2.16660819348116       -2.69588596001745       -0.93456503236360
H           -2.81201027862843       -2.82447539501468        0.50236716184318
H            1.60262081706841       -2.92571917566724        0.03660198001938
25
 energy: 18.045586542769 xtb: 6.6.1 (8d0f1dd)
C            3.26448251333328        1.26222461256045        0.11357549193293
N            2.36129210947213        0.14520261897096        0.04717993007040
C            2.69491127513532       -1.17555623842744        0.05087204788480
N            1.55078886730211       -1.92469965418846        0.06874112354532
C            0.45314117584664       -1.12067943234085        0.08438636512086
C            0.95936285044042        0.19813227378646        0.05729752043773
C            0.16330220307365        1.35592151330302        0.01140508731063
O            0.52186963700008        2.53566531238640        0.01786329361916
N           -1.21301423738664        1.00059312920645       -0.05629452351925
C           -2.16390394127554        2.09216346241103       -0.15455785603095
C           -1.75246259519968       -0.24962243529410       -0.05854469955853
O           -2.94275902854208       -0.43437089214859       -0.20264473490118
N           -0.92096380953969       -1.37299482426880        0.12412567498555
C           -1.69570791421579       -2.65392669993853        0.02404531624113
H            3.88187901725113        1.21863083118048        1.01454357872138
H            3.92734194722498        1.28051091003041       -0.75403931434783
H            2.67597826361749        2.17697340094463        0.12724290721815
H            3.69671633938702       -1.54539978055385        0.09789668412015
H           -1.59524063326967        3.01969930260629       -0.11450193544569
H           -2.71730281568300        2.02571440962398       -1.09056805486842
H           -2.86553085105072        2.03922861922522        0.67684388166777
H           -0.97217804699507       -3.47749369520424        0.07618942345344
H           -2.21623312447463       -2.62077304353743       -0.92009516703257
H           -2.77701331210914       -2.85751986429197        0.53079064774039
H            1.59345877859349       -2.92859523386955        0.05528120778187
25
 energy: 17.142117100845 xtb: 6.6.1 (8d0f1dd)
C            3.26637459235858        1.26263870068154        0.11123899533516
N            2.36159697722666        0.14889628965726        0.04478168427172
C            2.70035133823021       -1.18465467767629        0.05015507185031
N            1.54257982678059       -1.92989964634549        0.07719638260587
C            0.45543119719737       -1.11649363133207        0.08929988797668
C            0.95768653651311        0.20215562446265        0.05858111596485
C            0.15973031473342        1.35182902074352        0.01024137098295
O            0.52311352281834        2.53818554759659        0.00607339321635
N           -1.21768492462144        0.99954286460984       -0.05247190395937
C           -2.16754771160358        2.09075908246162       -0.15526041035941
C           -1.75270781447990       -0.24766425724341       -0.04714231621448
O           -2.94408437563881       -0.43817580040465       -0.18934018877579
N           -0.91808578518866       -1.36899369190024        0.14583596011624
C           -1.69007262508527       -2.64878150104570        0.00898268164931
H            3.87547167536554        1.22897142728488        1.01925778003250
H            3.94051238410131        1.27031798240388       -0.74968243368337
H            2.67795672639366        2.17818255115607        0.10925624793266
H            3.69752102275601       -1.56031384139078        0.11028164830145
H           -1.59678919166575        3.01747228127818       -0.12066871972270
H           -2.72105577210505        2.01780005523380       -1.09091824879294
H           -2.86821426854116        2.03990122297954        0.67680267696798
H           -0.95785772756105       -3.46321694039316       -0.00031846913485
H           -2.24843578475376       -2.56366470060645       -0.89998908693521
H           -2.73354628562451       -2.90163659628138        0.54479626483442
H            1.56997082033022       -2.93412876375785        0.07004451168696
25
 energy: 16.495075899792 xtb: 6.6.1 (8d0f1dd)
C            3.26657186273464        1.26149523016935        0.11153657234843
N            2.36147521764559        0.14841456536079        0.04434888352086
C            2.70177667079966       -1.18728983479389        0.04932680992993
N            1.54094594068761       -1.92994970132167        0.07815234809837
C            0.45609954056268       -1.11599979164648        0.08876042474611
C            0.95858697681593        0.20128938206842        0.05704992057062
C            0.15856147182739        1.35208971331610        0.00676220374843
O            0.52209685641364        2.53720937741199       -0.00124944586479
N           -1.21894974789420        1.00058439540510       -0.05130063977324
C           -2.16891318343376        2.09130506701205       -0.15607091087116
C           -1.75270453708755       -0.24750708536530       -0.03963068111602
O           -2.94496247668899       -0.43937527708546       -0.17721385264969
N           -0.91744117042341       -1.37008936846930        0.15445781715111
C           -1.68560810078016       -2.65042690560966        0.00458239443363
H            3.86648471896287        1.23598470325518        1.02569948225677
H            3.94992014012560        1.26183389401580       -0.74160304381644
H            2.68023073050738        2.17788760311937        0.09609261431506
H            3.69773865415503       -1.56309154777626        0.11789593340378
H           -1.59805559101696        3.01767369444709       -0.12421697120257
H           -2.72363605976125        2.01631211454850       -1.09077356221002
H           -2.86907444095362        2.04230971936951        0.67654396325787
H           -0.95174246666813       -3.46002335238920       -0.03130143224052
H           -2.27023886333489       -2.53649437885911       -0.89691065177967
H           -2.71077771314958       -2.92038653682705        0.55365751922000
H            1.56383023789054       -2.93472707718398        0.07243820067039
25
 energy: 16.275174726058 xtb: 6.6.1 (8d0f1dd)
C            3.26618944675393        1.26049182427404        0.11249334195381
N            2.36068313419063        0.14803322885938        0.04449648343883
C            2.70236127516513       -1.18917568363093        0.04691098940955
N            1.53955797586325       -1.92916373489813        0.07607435380600
C            0.45537887810659       -1.11613840983447        0.08498078506280
C            0.95897278659412        0.19988938098184        0.05494198458510
C            0.15869770861381        1.35298498132438        0.00432526980606
O            0.52116609149618        2.53609477943796       -0.00580173858289
N           -1.21956475294739        1.00246427628159       -0.05072240522124
C           -2.16922102743653        2.09295949348391       -0.15576853055309
C           -1.75353961727095       -0.24594702419058       -0.03447310711942
O           -2.94733446841325       -0.43691530263515       -0.16539708191056
N           -0.91929033964084       -1.37096238619465        0.15497678536900
C           -1.68697823054153       -2.65044493495201        0.00066020504110
H            3.85814177075224        1.24154913013471        1.03356928138874
H            3.95865708701701        1.25462803408670       -0.73474860468731
H            2.68120431397657        2.17896946567999        0.08569608997562
H            3.69795671728486       -1.56334699861063        0.12204579444413
H           -1.59810563248090        3.01882407516636       -0.12520481664163
H           -2.72515611740492        2.01747157751285       -1.08977315237005
H           -2.86904095705533        2.04486161588170        0.67733132683031
H           -0.94705501234532       -3.45826738175984       -0.04093968105644
H           -2.27041296401513       -2.53694137118894       -0.89114366673978
H           -2.70139903555493       -2.92831774241622        0.55280462849799
H            1.56034563722883       -2.93457229062197        0.06969936142065
25
 energy: 16.112494976991 xtb: 6.6.1 (8d0f1dd)
C            3.26575443497521        1.26057903933582        0.11296306793365
N            2.36041224754851        0.14814353854499        0.04486097840755
C            2.70238545642922       -1.18829689324271        0.04487284149529
N            1.54087295254538       -1.92846523368993        0.07530255646057
C            0.45532690412517       -1.11681618451859        0.08348353300898
C            0.95912822997359        0.19927309656813        0.05465848326280
C            0.15969581605148        1.35331719341438        0.00467799899119
O            0.52075702726868        2.53588270296040       -0.00514034103291
N           -1.21873087864147        1.00199223686737       -0.05104076050947
C           -2.16849674366994        2.09247086870079       -0.15566277043684
C           -1.75325178776712       -0.24650618288985       -0.03477953545421
O           -2.94757625228897       -0.43645378436385       -0.16351202639855
N           -0.91947952660474       -1.37213299725588        0.15197351318874
C           -1.68808094374966       -2.65108105889894        0.00001326232088
H            3.85562938306870        1.24274839965333        1.03611192529870
H            3.96044195268168        1.25287668858569       -0.73292581710786
H            2.68127536370555        2.17977649900140        0.08350757339090
H            3.69858017213725       -1.56055073565355        0.12235594740691
H           -1.59774242018027        3.01859549237564       -0.12435490261896
H           -2.72422587302641        2.01790698956625       -1.08997690192737
H           -2.86872870032341        2.04426332078970        0.67717213515129
H           -0.95091525545256       -3.45602994904806       -0.03640219376980
H           -2.27261871137044       -2.54260196870202       -0.89304111954982
H           -2.70154018236130       -2.92598031935547        0.55472782706212
H            1.56334200286193       -2.93388215657314        0.06718862157346
25
 energy: 16.027922517446 xtb: 6.6.1 (8d0f1dd)
C            3.26523827932514        1.26050071071862        0.11307309313148
N            2.35993412532821        0.14809120222812        0.04526700744622
C            2.70179966930432       -1.18704655938524        0.04214599452483
N            1.54216836075959       -1.92781636792068        0.07565104174026
C            0.45486835581983       -1.11753624149904        0.08360293975237
C            0.95897034886417        0.19877322255382        0.05504554642027
C            0.16073268242969        1.35369284169687        0.00541684230740
O            0.52045746560603        2.53580666063319       -0.00423326359129
N           -1.21783332029969        1.00147685552551       -0.05158606536000
C           -2.16759862857535        2.09199557425879       -0.15614270670711
C           -1.75307854842441       -0.24696912625660       -0.03514644623490
O           -2.94763535145425       -0.43577335065740       -0.16251704048599
N           -0.91993146304078       -1.37301017938749        0.15048804881365
C           -1.69000600149791       -2.65115686963767        0.00030282877517
H            3.85349910006465        1.24369458848958        1.03767880415471
H            3.96159294568114        1.25108678275670       -0.73154198779195
H            2.68161228502105        2.18028994758228        0.08145389885706
H            3.69875672578226       -1.55722418342958        0.12336734635972
H           -1.59719832562996        3.01843661859419       -0.12387630339954
H           -2.72263022048430        2.01823600413704       -1.09100220680300
H           -2.86845440826472        2.04355010461886        0.67615630929880
H           -0.95221973431078       -3.45922178834638       -0.03781389616977
H           -2.27616466795615       -2.54331702844462       -0.89342530118165
H           -2.70174874253404       -2.92436169615106        0.55943642912618
H            1.56708373642229       -2.93316912050592        0.06523298316433
25
 energy: 15.901487977468 xtb: 6.6.1 (8d0f1dd)
C            3.26531465152521        1.26049683432599        0.11294845366897
N            2.35993632989238        0.14822515299024        0.04533484539814
C            2.70171469934556       -1.18709596240971        0.04022334985219
N            1.54206182097606       -1.92796813083985        0.07581377750342
C            0.45481943425703       -1.11750815596496        0.08382852286981
C            0.95875566325091        0.19901362898682        0.05529586241285
C            0.16081004537429        1.35362775706448        0.00572328648438
O            0.52034629559979        2.53616619728016       -0.00379424209758
N           -1.21798652115499        1.00126657018240       -0.05190253000766
C           -2.16767090127221        2.09184509826588       -0.15601534288845
C           -1.75319049252949       -0.24696264349601       -0.03546224309242
O           -2.94778836290296       -0.43566296831614       -0.16248951933820
N           -0.91989268150198       -1.37290287124971        0.14969227431507
C           -1.69006315164369       -2.65082676607850        0.00070975988879
H            3.85315545492199        1.24420001356096        1.03790965058569
H            3.96224193323674        1.25049988002181       -0.73135091729153
H            2.68178459661020        2.18039462287559        0.08069311931586
H            3.69863791578821       -1.55700692618888        0.12446184779769
H           -1.59717932299766        3.01826574863442       -0.12338713824096
H           -2.72251556304653        2.01833756641751       -1.09095720857505
H           -2.86852471171956        2.04300504859187        0.67619163786320
H           -0.95360229018819       -3.45979695640108       -0.03617666823723
H           -2.27563227055128       -2.54442886398400       -0.89334688570235
H           -2.70048310701059       -2.92291019316942        0.55874986898777
H            1.56716520367687       -2.93324507892796        0.06434033467490
25
 energy: 15.566033030981 xtb: 6.6.1 (8d0f1dd)
C            3.26562031115331        1.26022602485324        0.11286516481876
N            2.36008686372563        0.14822389231614        0.04553565893424
C            2.70139693598680       -1.18767565517947        0.03406995334472
N            1.54125388863104       -1.92851538196858        0.07580652041222
C            0.45469311280835       -1.11724396354239        0.08417515152629
C            0.95830600624878        0.19964837806555        0.05598389828665
C            0.16066590530115        1.35340373622900        0.00622791188002
O            0.52014896239959        2.53685803678053       -0.00254679656433
N           -1.21870813160700        1.00107571017364       -0.05283687935253
C           -2.16819381388845        2.09184154794442       -0.15583378266961
C           -1.75365739250125       -0.24671593465832       -0.03650489651041
O           -2.94822984309990       -0.43559418958638       -0.16337918513363
N           -0.91975085384006       -1.37227499840266        0.14705553061078
C           -1.68971350760825       -2.64983286641464        0.00090422814692
H            3.85284334097189        1.24478257375100        1.03825544906661
H            3.96339802886715        1.24936752070113       -0.73095701333263
H            2.68210477744094        2.18018326547034        0.07969666973748
H            3.69773811179136       -1.55744150651439        0.12974637454648
H           -1.59735161206948        3.01804704818399       -0.12239110332305
H           -2.72268235054085        2.01892800753410       -1.09088411761287
H           -2.86900226624860        2.04203671128072        0.67621464179336
H           -0.95396970012213       -3.45923984701205       -0.03450946131269
H           -2.27436642101723       -2.54545312831795       -0.89308600044963
H           -2.69665752352912       -2.92199890851716        0.56170549629332
H            1.56624183868241       -2.93360747099792        0.06172048301078
25
 energy: 15.535027386521 xtb: 6.6.1 (8d0f1dd)
C            3.26563133060638        1.26028898035226        0.11277164243476
N            2.36032933301002        0.14803605989603        0.04554306770804
C            2.70159915677307       -1.18776673612204        0.03119657256787
N            1.54129957555509       -1.92852197682395        0.07547005466516
C            0.45496044184679       -1.11723618541729        0.08489946423947
C            0.95857043095296        0.19957933018616        0.05641413709427
C            0.16057721473160        1.35337737649339        0.00630448503757
O            0.52016402333346        2.53655405963242       -0.00230893174429
N           -1.21871022581366        1.00127031484930       -0.05287744926179
C           -2.16833291544540        2.09201582113309       -0.15593970094236
C           -1.75350211256796       -0.24670777734922       -0.03668166190842
O           -2.94793068735284       -0.43597971392677       -0.16406793149419
N           -0.91940666031497       -1.37221476370833        0.14695565526728
C           -1.68966422651671       -2.64981407730199        0.00121353553503
H            3.85365844249783        1.24419654232902        1.03753870075087
H            3.96249620711947        1.25029050907193       -0.73162593900936
H            2.68179744991799        2.17999163287430        0.08071397491390
H            3.69733827788791       -1.55761050686396        0.13324042226934
H           -1.59758152222488        3.01820887383585       -0.12250265939870
H           -2.72297640136718        2.01907793396711       -1.09092213099376
H           -2.86914260627248        2.04222761892554        0.67618155261888
H           -0.95351448924571       -3.45952739163602       -0.03472108300013
H           -2.27557138951032       -2.54577841105453       -0.89276213115026
H           -2.69602913705650       -2.92130834708497        0.56204937221581
H            1.56615515739213       -2.93362056408544        0.06095087773227
25
 energy: 15.440730771893 xtb: 6.6.1 (8d0f1dd)
C            3.26535104268603        1.26032129988406        0.11253574998242
N            2.36039255141502        0.14756863898426        0.04526617451295
C            2.70211294478465       -1.18812769982111        0.02082464563697
N            1.54099709095750       -1.92845924320057        0.07377129973612
C            0.45518782913124       -1.11709131329377        0.08630182690351
C            0.95905996768604        0.19916839696167        0.05744455883708
C            0.16017410261740        1.35343174783189        0.00670542262275
O            0.52015116002031        2.53570582482864       -0.00203261142920
N           -1.21854756117296        1.00199217854163       -0.05256247390922
C           -2.16826761519492        2.09273376104465       -0.15610664157886
C           -1.75338403220771       -0.24638982284517       -0.03718565385078
O           -2.94752081070434       -0.43630330910284       -0.16519808443649
N           -0.91914374401535       -1.37200536439252        0.14642480662870
C           -1.68912236456832       -2.65023715079081        0.00126968774400
H            3.85572138756358        1.24207775647098        1.03559361038509
H            3.95973375293472        1.25291920345247       -0.73342963253387
H            2.68106783859460        2.17959909856251        0.08394705522842
H            3.69576105992596       -1.55797233662120        0.14559437756231
H           -1.59768285786230        3.01890612571856       -0.12308083315327
H           -2.72333333578737        2.01937655040741       -1.09090901702767
H           -2.86901164810720        2.04327181833453        0.67626159685647
H           -0.95161114882139       -3.45905177010873       -0.03514241890654
H           -2.27646300630879       -2.54684534995129       -0.89233414214313
H           -2.69460172396390       -2.92187510379678        0.56411839832682
H            1.56519378833353       -2.93368533492657        0.05895619415269
25
 energy: 15.378833440434 xtb: 6.6.1 (8d0f1dd)
C            3.26513503324523        1.26033047600536        0.11211944620058
N            2.36004708491346        0.14766818628022        0.04492082039180
C            2.70264938980017       -1.18823507414248        0.01241928851533
N            1.54091204509582       -1.92848688721461        0.07291921743200
C            0.45523956140261       -1.11701543178129        0.08738940352748
C            0.95915094674739        0.19893154519479        0.05826313011741
C            0.16001334382884        1.35340782719626        0.00741368728501
O            0.52005503095615        2.53557608686225       -0.00194918998050
N           -1.21824778546303        1.00199069657810       -0.05195290278907
C           -2.16799418104945        2.09266408258823       -0.15613201735920
C           -1.75330651726479       -0.24640645862478       -0.03687562345389
O           -2.94745640182237       -0.43622773371331       -0.16535626397534
N           -0.91907234126697       -1.37192831138057        0.14685673400369
C           -1.68900909079252       -2.65031308346183        0.00138277889607
H            3.85633154806342        1.24116119596013        1.03460011179602
H            3.95871024063634        1.25368212538277       -0.73436432967233
H            2.68107938787971        2.17969034347122        0.08499818313978
H            3.69463253596952       -1.55732346083205        0.15413740873726
H           -1.59752165988356        3.01894404237331       -0.12357756123841
H           -2.72306187075782        2.01885801613055       -1.09089451320770
H           -2.86872270522951        2.04361342760036        0.67625863121826
H           -0.95168232222419       -3.45921917502784       -0.03534421262438
H           -2.27651562709389       -2.54677779952659       -0.89215186488487
H           -2.69399795371074       -2.92183849619684        0.56383154294145
H            1.56484697595627       -2.93371753754941        0.05812199113081
25
 energy: 15.405291115895 xtb: 6.6.1 (8d0f1dd)
C            3.26497938142428        1.26015160022323        0.11165943498002
N            2.35944907169505        0.14788301964796        0.04455026118756
C            2.70314419970854       -1.18825129813179        0.00509999878575
N            1.54086679716669       -1.92852407491406        0.07224841977433
C            0.45521935240118       -1.11694394132821        0.08791331978208
C            0.95917941822369        0.19866661540376        0.05878794395396
C            0.15983467276811        1.35339840026289        0.00798937994853
O            0.51998145432691        2.53552402923172       -0.00178984313353
N           -1.21790918575325        1.00181323837154       -0.05123306223572
C           -2.16777687962471        2.09231802454070       -0.15602637658537
C           -1.75316310966452       -0.24660206193577       -0.03642403610864
O           -2.94738327068173       -0.43592206426061       -0.16499454411466
N           -0.91900059721548       -1.37189935813175        0.14778277993164
C           -1.68888864885669       -2.65023079953858        0.00143073449168
H            3.85600233744847        1.24069666317314        1.03426594620634
H            3.95873666716400        1.25309632174254       -0.73461874869917
H            2.68162832619693        2.17990062207928        0.08462726620431
H            3.69342115357661       -1.55601033400343        0.16107406746552
H           -1.59746976715167        3.01878162832746       -0.12380917245145
H           -2.72258719293190        2.01804641584794       -1.09086513413197
H           -2.86859783414297        2.04354946385320        0.67620946712950
H           -0.95174943952308       -3.45885668170623       -0.03548035120535
H           -2.27545119014675       -2.54563037598390       -0.89225163802356
H           -2.69494942039678       -2.92223491829542        0.56314084598697
H            1.56469837192514       -2.93369153230369        0.05774693700848
