25
 energy: -42.168012754458 gnorm: 0.007926491390 xtb: 6.6.1 (8d0f1dd)
C            3.21093473868420        1.20598467200031       -0.06026606863328
N            2.30929084132313        0.08507374197282       -0.04084182170835
C            2.64420510976732       -1.20340077369922       -0.03329050954641
N            1.52451874690546       -1.96525571179956       -0.00000918277219
C            0.44292809869443       -1.12556855611012        0.01073283276801
C            0.93591394756429        0.16868626339698       -0.00824498242957
C            0.05250738971539        1.31700587667497        0.03052162476775
O            0.38520628694456        2.47629445375882       -0.01698087183397
N           -1.28738312952190        0.89115923842871        0.15015374176856
C           -2.31971875630001        1.95947307428690        0.20290359128336
C           -1.75187515263453       -0.35891759490492        0.15306323094011
O           -3.18326532725171        1.86864574548236       -0.85792789052479
N           -0.88694919707409       -1.38544496562900        0.06331157004894
C           -1.38268954827922       -2.74685626129443        0.03111190176253
H            3.69587993111932        1.31983857268328        0.91139448587862
H            3.97818175575696        1.06036839456823       -0.82018264964531
H            2.64135579862144        2.10943279080286       -0.27596094121165
H            3.64472912865185       -1.58959087458164       -0.05167990934101
H           -1.79164537692390        2.91114748662394        0.10598974338173
H           -3.83463511751729        1.16948796120123       -0.71662811385008
H           -2.80607737684633        1.88950880949328        1.18878967756257
H           -1.05486717529145       -3.30073455050278        0.91239495691365
H           -1.03849723115099       -3.25648763436078       -0.86990329467516
H           -2.46912039984259       -2.70661487234843        0.02379507643746
H            1.50150352898507       -2.97499674454705       -0.00107457944054
