25
 energy: -5.552526123952 xtb: 6.6.1 (8d0f1dd)
C            3.28925167831823        1.16336285428439        0.10202113981108
N            2.31959228399205        0.11349312483750        0.02683566451276
C            2.60056481057819       -1.24639320045479        0.02445398065125
N            1.40087276322604       -1.92478976021731       -0.01779249400116
C            0.39546375317858       -1.02927396894993       -0.01267139119644
C            0.91973965709993        0.25502065122462        0.01806413749463
C            0.07766977366850        1.39405327856836        0.02878296154258
O            0.44594665425755        2.57330190348909        0.01379894987352
N           -1.33086120867009        1.05698535250174        0.00538991464815
C           -2.29133958167136        2.15302328917338       -0.08559035343053
C           -1.85706475407252       -0.19430225733178        0.02584224468007
O           -3.05022569925205       -0.40972503957428       -0.00190041081017
N           -0.94671524224395       -1.27216816485746       -0.00446198011875
C           -1.44521679824510       -2.62716261593038       -0.06689584102757
H            3.73728808812853        1.23456854921124        1.10761014717517
H            4.09600913563337        0.99334021818566       -0.61975902702012
H            2.79211635162832        2.10016220068653       -0.13327808769661
H            3.56985819931826       -1.69127857170136        0.03110214981171
H           -1.70840317538892        3.07251641955908       -0.10185680867662
H           -2.90462630732600        2.07811150268299       -0.99023175400825
H           -2.95541439137249        2.14281498520415        0.77986034514337
H           -1.09298513122266       -3.20945936463775        0.78875467566997
H           -1.14754751437396       -3.11993924943256       -0.99826685039115
H           -2.53115325382301       -2.56240902965909       -0.02262529747122
H            1.32266149693013       -2.92958020858059       -0.02972538227396
