25
 energy: 77.761937386139 xtb: 6.6.1 (8d0f1dd)
C            3.61805379121208        0.93964715040608        0.18364258510236
N            2.55062254275701       -0.01466178246914        0.13238870353490
C            2.76770486419440       -1.33280509343053       -0.02856723409026
N            1.59443364291647       -2.00161884251599       -0.09432179263256
C            0.54825083518324       -1.09943430844690       -0.01942870658393
C            1.14638024115686        0.20392984283126        0.11239118965149
C            0.44645683508712        1.34865132730328        0.09810137275178
O            0.32924356723435        2.50869816739210        0.37450219702085
N           -2.18448645308607        1.34702489353908       -0.06696461380042
C           -3.00480881043523        2.47951435159604       -0.29259067160939
C           -2.52117563695600        0.26059571259885        0.31105935132606
O           -3.05957713731522       -0.62764178999883        0.82578829381396
N           -0.70929298867887       -1.27578956483720       -0.02203609928422
C           -1.24297559520395       -2.60178226805720       -0.14249016664507
H            3.53400665034941        1.56571421799531        1.07321583131176
H            4.53480652291868        0.33928011454925        0.04419851077403
H            3.60802134794172        1.74474407811600       -0.55996815292481
H            3.70761675249999       -1.77768092077082       -0.15440068954883
H           -2.29997529641878        3.26329427900805       -0.55185238459505
H           -3.64239489473816        2.28959215571841       -1.14539344261170
H           -3.63311165726483        2.69392883257620        0.57205086085508
H           -0.51407206432207       -3.29903366716338        0.27141130975669
H           -1.46905059400284       -2.79253112183220       -1.19445636931424
H           -2.19057925262176       -2.72547690000049        0.40147871682434
H            1.48376916722526       -2.98428419295449       -0.20323499241855
