25
 energy: 64.714092720282 xtb: 6.6.1 (8d0f1dd)
C            3.31250873245097        1.08379970857472        0.69242095401944
N            2.50334355365656        0.10865865014431        0.04173420560860
C            2.94189512374474       -1.03788332196177       -0.59602495803688
N            2.04576876058509       -1.73765552613946       -1.17184029173920
C           -0.25393125452304       -1.71260192617695       -0.34627069395478
C            1.15825860406967        0.20521612438882       -0.12768497189742
C            0.80639343527384       -0.97362811989324       -0.99391332962957
O            0.35304341217136        1.06409462710016        0.17959465487001
N           -2.54558046796479        1.75264663160713       -0.82518816451175
C           -2.60358956905454        3.12762223235833       -0.59134906115638
C           -2.17638259994902        0.68602837511064       -0.47464284913135
O           -2.10608893705660       -0.46080315172993       -0.30963353828842
N           -0.41417503230720       -2.62376684289661        0.42364979241722
C           -1.34732210315128       -3.39287279370408        1.10078914201462
H            3.84833213078955        0.61373774973547        1.51712348705133
H            4.00919169246167        1.49294538086516       -0.03773043860263
H            2.67262444451059        1.87077664718871        1.08371180455038
H            3.95799383455509       -1.35148157848539       -0.54820223094263
H           -1.66414087456827        3.55723138893343       -0.23622451332892
H           -2.87705509591855        3.55351208720671       -1.55278396138033
H           -3.39132727221890        3.27317703605680        0.14607271625489
H           -0.92478541087540       -3.50010924618328        2.10022805409993
H           -1.33888098036497       -4.35031348899847        0.59001294861470
H           -2.36829151065964       -2.98533469441913        1.15446210825660
H            0.48848438487151       -0.64922419057825       -1.97203608274993
