25
 energy: 125.816801725032 xtb: 6.6.1 (8d0f1dd)
C            3.18120162674625        0.89019587491554        0.70855249667045
N            2.35165079863658       -0.13289075008983        0.14095877872341
C            2.63085554481800       -1.00951525855587       -0.85146990410834
N            1.52848328281796       -1.82445397546281       -1.14241425874634
C            0.52764044671251       -1.59199963507629       -0.11696824855668
C            0.97663977970637       -0.30134720679620        0.40506782665297
C            0.42698267853179        0.69623191482376       -0.31631754118924
O            0.52496165153528        1.87779352326858       -0.38673398552735
N           -1.81998385335892        1.36423640060731       -0.68100879277011
C           -2.26811625264028        2.66072293445696       -0.57982443525290
C           -2.24971442276480        0.28900772319994       -0.47340238247176
O           -2.52852297452146       -0.82229639261212       -0.36534205202666
N           -0.46591555887189       -2.29371529037401        0.02020739657955
C           -1.30533720360313       -2.82991297316595        0.97443144905365
H            3.74906835746058        0.41847640751152        1.50987177468577
H            3.87803801087428        1.33578624161659       -0.00878867333300
H            2.57323734449460        1.70444572356356        1.10946900306067
H            3.62533124446077       -1.32571666390573       -1.04784062322111
H           -1.46924232912116        3.29303161734385       -0.20407980761168
H           -2.53612084129667        2.90442757616540       -1.59404633722678
H           -3.12344835978885        2.65177095680645        0.07779215932146
H           -0.76935533377768       -2.77031442763419        1.91758242834324
H           -1.38571728762987       -3.81769717794898        0.56084580648404
H           -2.31203917355819       -2.43844968890167        1.08487600456417
H            1.13242020690078       -1.73967554719843       -2.07464746834671
