25
 energy: 142.280634948564 xtb: 6.6.1 (8d0f1dd)
C            3.19199299302771        0.90069157921863        0.71939168443213
N            2.38018845014188       -0.12875428537604        0.13997726960642
C            2.67930762545248       -1.05822110268870       -0.78316872145968
N            1.58225684881314       -1.85514520113101       -1.15595776699669
C            0.57171659534409       -1.63125665783537       -0.07442130656486
C            1.02206280063703       -0.30811209519596        0.41268881020914
C            0.40203716429488        0.60290496990519       -0.37722852463977
O            0.41728446109231        1.79164568653539       -0.40805060404970
N           -1.90295250438038        1.44575091195292       -0.73673241153504
C           -2.31987001992952        2.74548276048805       -0.56207496414375
C           -2.26151949804978        0.35511220170355       -0.48556802547363
O           -2.41205051516215       -0.77738013769716       -0.35105426960669
N           -0.44305062118800       -2.19590949662500        0.24315438159495
C           -1.32955550894906       -2.91908468980257        0.98218314687372
H            3.75447791653134        0.42412002568264        1.52445130912096
H            3.88690711695150        1.35683548825821        0.01091021463618
H            2.56883330979034        1.69439881680814        1.13691334502455
H            3.67360836293576       -1.33520881944970       -1.00783506792385
H           -1.49075677628144        3.33726422829015       -0.18919217869387
H           -2.60885108214289        3.02022520536528       -1.56178391486300
H           -3.13474546706607        2.71823789566023        0.14312439777136
H           -0.82003298257606       -2.93434326336405        1.94143990542618
H           -1.37934748135515       -3.86788053930084        0.48340133236789
H           -2.32287579085023       -2.49533072500812        1.12082094122053
H            1.16278851259903       -1.55888386113110       -2.04060595476882
