25
 energy: 44.990574973989 xtb: 6.6.1 (8d0f1dd)
C            3.16972903954058        0.94487367952013        0.58204266044825
N            2.26430891231911        0.03358094654544       -0.06763410105034
C            2.55289870551960       -1.07697698194668       -0.78813416791958
N            1.44271268094045       -1.88646660139020       -0.88347521789985
C            0.42452789120819       -1.31295420695310       -0.15813624747300
C            0.86998992280595       -0.02487235518088        0.13649342272551
C            0.11283307900252        1.06573404072306       -0.29514321276117
O            0.61059776376010        2.19395912331182       -0.36523299687514
N           -1.33021653374018        0.96232742934152       -0.47838035264597
C           -2.09189304721599        2.22019510981147       -0.58091743105913
C           -1.84911265784780       -0.26541310049841       -0.29955935942599
O           -3.02061404770421       -0.60647503583575       -0.35755870989774
N           -0.91696272749505       -1.48641295579364        0.01065125021538
C           -1.35257193324216       -2.63972447534334        0.73053657388746
H            3.70030140860505        0.46423217324333        1.40309435611599
H            3.91708969566243        1.31215807108343       -0.12351179785246
H            2.59388885846252        1.80364360328341        0.91382812237884
H            3.56011618504889       -1.41382878785939       -0.90101008440628
H           -1.43084441024926        3.03271625786696       -0.22488372382657
H           -2.31580517642200        2.43792615645305       -1.62688375665817
H           -3.03493894635667        2.20785301972027       -0.03348464248022
H           -0.76499438675313       -2.73588840240064        1.65691933984501
H           -1.18933747382895       -3.52913217347742        0.13249832312511
H           -2.41589951174036       -2.56485055488694        0.93994413684584
H            1.18471080565348       -2.29105249664757       -1.76406334351410
