25
 energy: 103.560867886313 xtb: 6.6.1 (8d0f1dd)
C            3.25261010988089        1.04151836101405        0.70184349942142
N            2.44681393274010        0.04828637650496        0.07553821569352
C            2.92058524229564       -1.04439471930035       -0.64201449849533
N            2.23947281943497       -1.80277953657505       -1.32879656885607
C           -0.15130707407841       -1.67099691685457       -0.29039236865871
C            1.12556880835377        0.23127830941443       -0.13347799279438
C            0.55147658450226       -0.80605393278520       -0.98194789104559
O            0.41076216375348        1.16328867607740        0.12923083468213
N           -2.31188405794932        1.70719643724806       -0.88316910368828
C           -2.51757695505324        3.04257013097735       -0.58716042036054
C           -2.19657686887988        0.62198685628886       -0.44341316183689
O           -2.08997768224073       -0.52779077179644       -0.30500225940528
N           -0.40047486050570       -2.59513467577542        0.40578591729998
C           -1.37364043471338       -3.26595670013281        1.09942317768290
H            3.80776181381670        0.56890105410527        1.51249150662544
H            3.94481959953376        1.44908299547376       -0.03573504624737
H            2.57121996701080        1.81683202106573        1.06369256597147
H            3.97468879835618       -1.21895708530554       -0.58862632545690
H           -1.62397541765407        3.51173537477902       -0.17225893584103
H           -2.77254395827008        3.45640149260813       -1.55389857695009
H           -3.34844598195122        3.09590232334155        0.11253905014655
H           -0.91006381696100       -3.36928492684915        2.07322364036729
H           -1.38051495896641       -4.21093124539536        0.56895752721369
H           -2.36842923173274       -2.80451939054673        1.17153627922792
H            0.78604976768957       -0.91048854689841       -2.00802488838101
