25
 energy: -1.706903693794 xtb: 6.6.1 (8d0f1dd)
C            3.21355882563675        1.13190474344786        0.22886700437011
N            2.26470188138825        0.10634354824591       -0.03357467513187
C            2.59043549443748       -1.20756489831606       -0.26057160678075
N            1.42333562248697       -1.93022177610259       -0.27403549009739
C            0.37998824740782       -1.10521481354303       -0.14396667140937
C            0.87662791497956        0.15986202983712        0.07548064969013
C            0.03782009182333        1.27463049997057        0.11479077943112
O            0.39664348871433        2.43677493389054        0.33883033644707
N           -1.32371895051206        0.97787807523180       -0.17529391946032
C           -2.20194736422945        2.13816560067288       -0.24450341859142
C           -1.85659501277170       -0.27445025210945       -0.18543995701544
O           -3.04615771065043       -0.49475047934316       -0.26085415936076
N           -0.95326459735272       -1.36094053492814       -0.07294027364320
C           -1.45055494493468       -2.67622833341988        0.16187717739093
H            3.70733525976448        1.00213916884882        1.19103008406545
H            3.98758837028326        1.12440363238489       -0.53744397244990
H            2.67359037245447        2.06937041376081        0.20270688778239
H            3.57724638335838       -1.59435854858685       -0.20544457624465
H           -1.58516163132593        3.02644482667731       -0.09286873236049
H           -2.67479624786631        2.18516247562835       -1.21797691525003
H           -2.96786052639320        2.09437119222790        0.52654802700503
H           -1.04941262289028       -3.07522430300831        1.09258389976976
H           -1.16703295008258       -3.31199855389768       -0.66880859849286
H           -2.53216987559622       -2.58466786175730        0.20737579379312
H            1.34618160848786       -2.88584393028512       -0.53062806393336
