25
 energy: 34.330172228263 xtb: 6.6.1 (8d0f1dd)
C            3.16998017144420        0.97743418764578        0.53610797170081
N            2.24998638444275        0.04809907019756       -0.04797108918132
C            2.55461721031023       -1.07586246958135       -0.75083991246885
N            1.43870457443666       -1.87953923729065       -0.81842998492187
C            0.40779805815546       -1.27511626362304       -0.16725832962448
C            0.84545607241568        0.00746911945586        0.13983807382238
C            0.07393434692122        1.10295537917822       -0.26112970475642
O            0.55232282031532        2.23959739361844       -0.25450696501001
N           -1.34666563577915        0.94386004693214       -0.46607104060145
C           -2.10577562794397        2.19756215815703       -0.58187793984674
C           -1.85956851062140       -0.29281119739711       -0.27023150978400
O           -3.01481088806798       -0.60512721117722       -0.35905332469575
N           -0.92599291868466       -1.46977632558686        0.01888694126305
C           -1.38278912960869       -2.66356683267720        0.66392281185025
H            3.69694128551899        0.54097917665422        1.38405946582423
H            3.92412802014142        1.28687168144781       -0.18830070441652
H            2.60681758950270        1.85778541910535        0.82267092313449
H            3.56157480286552       -1.43252796831506       -0.80262998225428
H           -1.43314665306492        3.00449388293399       -0.24736344676907
H           -2.35288272087427        2.40073091234109       -1.62216843170375
H           -3.03600465663929        2.18455521761133       -0.00474226275870
H           -0.82468230039598       -2.79019295587907        1.59777265844973
H           -1.19644375779622       -3.51319218359045        0.02370705411752
H           -2.44724000679879       -2.56306628488907        0.83253273073081
H            1.22401570561607       -2.42458112762352       -1.62560250961336
