25
 energy: 129.760153848269 xtb: 6.6.1 (8d0f1dd)
C            3.18235607168781        0.89860083753426        0.66115480345407
N            2.34208230882670       -0.09882120130368        0.06123325406613
C            2.61113012159255       -1.02610690651449       -0.88769300394430
N            1.51970806747970       -1.88425469288571       -1.09561251057502
C            0.50834763561594       -1.52298961394614       -0.12830077277089
C            0.96132498641984       -0.20566738523817        0.29597691730333
C            0.43724655199666        0.83118021115389       -0.38746402569550
O            0.63965416894758        2.00340854601795       -0.43481727173511
N           -1.70584720789213        1.26318019894830       -0.63752324817939
C           -2.21831357750297        2.56205515681287       -0.58293797968002
C           -2.21620456034564        0.21392372477270       -0.43994111109941
O           -2.68797289048633       -0.82706388511775       -0.37829677354392
N           -0.57127221700693       -1.99529219727611        0.16982888815323
C           -1.32928199857114       -2.83552716324939        0.92414319774750
H            3.73193130286800        0.42245236975576        1.47243350847784
H            3.89810464017297        1.33209691721229       -0.04168207850273
H            2.57955783762268        1.72245221116603        1.04883822559391
H            3.61504913755702       -1.35486720820032       -1.02605419612391
H           -1.45132646260816        3.23722572915793       -0.21535977872591
H           -2.47380515369421        2.76804163445350       -1.61448152638845
H           -3.10716030566048        2.53214969904723        0.03624065528689
H           -0.79483969429687       -2.83499377476873        1.87240990456014
H           -1.31474530411306       -3.78068155191413        0.40749494085045
H           -2.35740575778694       -2.50822354718209        1.06190308235842
H            1.14296298478507       -1.94410613412285       -2.03177014645849
