25
 energy: 62.491530823456 xtb: 6.6.1 (8d0f1dd)
C            3.34000907905045        1.17289970453104        0.65961516916575
N            2.51348250811429        0.18285194596403        0.02412659141133
C            2.95360091323553       -1.00794322097748       -0.51678195559523
N            2.04873483566698       -1.72238818018891       -1.07679915322330
C           -0.21615226151765       -1.78322342718433       -0.25807640539679
C            1.16146003170749        0.27964480286446       -0.15075511679849
C            0.80192488227009       -1.00650795197466       -0.93591241183898
O            0.43687213778668        1.18710925763642        0.20973128518489
N           -2.51378281527314        1.78891798232859       -0.80137782427322
C           -2.64639341041018        3.17118952732445       -0.58595100890923
C           -2.20903235639418        0.69637159330548       -0.47001513509902
O           -2.03389029413278       -0.44796190346630       -0.34930935437702
N           -0.47872085086300       -2.71345153328547        0.45259947463958
C           -1.39276905462778       -3.49757290048791        1.15434356632596
H            3.85252288213752        0.74582301942448        1.52367561259695
H            4.08255214298440        1.55223553652480       -0.04564069233265
H            2.70006403752900        1.99194750345047        0.98608443584671
H            3.98518382021359       -1.29620800400203       -0.47187372493725
H           -1.70607629646925        3.60506243150681       -0.24387141590654
H           -2.93347006289800        3.61935176740387       -1.53817615232079
H           -3.43008776410136        3.36521434016110        0.15052871825351
H           -0.97305827789448       -3.64477009660937        2.15322905669289
H           -1.45628503845202       -4.46713732571391        0.65512324991881
H           -2.39120959640184       -3.05727206950522        1.23451413101882
H            0.41673511371304       -0.72515401028826       -1.93199702785118
