25
 energy: 74.436306403310 xtb: 6.6.1 (8d0f1dd)
C            3.28093250498215        1.07695302572137        0.69257179987676
N            2.50502917408118        0.09060846897237        0.06668875042379
C            2.91846688537053       -1.04054326525997       -0.59203230095373
N            2.04285338645813       -1.73861207201816       -1.16955689492882
C           -0.22864234795178       -1.64881750888801       -0.31277215762282
C            1.16393248505926        0.19001216287180       -0.14249047989033
C            0.80322735535024       -0.95578590620672       -0.98849565061358
O            0.37462201735276        1.01721897969591        0.20186843848489
N           -2.41582355555160        1.73860409054220       -0.87173023291464
C           -2.56193111503650        3.08115683643941       -0.58904458743235
C           -2.18434579930856        0.66290165583202       -0.44058848410244
O           -2.09031151932488       -0.48509889764827       -0.29820058164735
N           -0.39542337912217       -2.62106281548881        0.36776862119875
C           -1.34679659639465       -3.30015535244592        1.07689352848323
H            3.82038751288525        0.59483460136487        1.51308018769880
H            3.97755453676896        1.46398139788609       -0.04344560431755
H            2.61279195032091        1.86203640166578        1.05324703866704
H            3.93385051431945       -1.34972410602472       -0.58678983816087
H           -1.64825063578267        3.54580606990860       -0.21068839640421
H           -2.83818579342349        3.49318021593559       -1.55264656326630
H           -3.36721540875677        3.16727460557945        0.13772516493930
H           -0.89977231321434       -3.40777434438399        2.06613993659251
H           -1.34557116022355       -4.26380173257890        0.58843638403338
H           -2.35948742933361       -2.87480664361078        1.15056852362277
H            0.60544334859160       -0.72528995663488       -1.99393967103679
