25
 energy: 194.527299661308 xtb: 6.6.1 (8d0f1dd)
C            3.25020509737206        0.99755334511807        0.70601905590352
N            2.46627149299499       -0.03802585632218        0.10362262295118
C            2.85769594807895       -1.05605938479456       -0.69785709425184
N            2.19764568023915       -1.75005100457532       -1.49395688010606
C           -0.10973414631718       -1.41949163726886       -0.12302614582235
C            1.08663811423715        0.01914210253387        0.36515766892690
C            0.35486412267595       -0.42466852047964       -0.95248318718034
O            0.30618994152652        0.87013433095423       -0.45971087008619
N           -2.22750204092172        1.67653602555457       -0.86713085436939
C           -2.47805571251232        2.99702778542861       -0.57141398318076
C           -2.22129766490112        0.58120479509140       -0.44884860908769
O           -2.10746851985846       -0.56675098630225       -0.29823538047025
N           -0.34619072233926       -2.44273585270612        0.42315460869303
C           -1.32819408221921       -3.18154295586065        1.05768376827997
H            3.79652361972869        0.57937510207595        1.54539991352567
H            3.91784493574506        1.44383142554825       -0.02498355396641
H            2.57371955386646        1.77963661691550        1.06662400142838
H            3.89940848941035       -1.30944581850004       -0.62180523716046
H           -1.60557340355845        3.47810320500837       -0.13160967859210
H           -2.70992286109390        3.39232970954616       -1.54473923212472
H           -3.32550242530329        3.01465536383777        0.10169089683016
H           -0.89213125633801       -3.30611762550304        2.03970873182743
H           -1.36674035024768       -4.09916089906715        0.49415561667559
H           -2.31979371209434       -2.70967573567550        1.14603412035165
H            0.98468866625971       -0.88015598356025       -1.76473655508847
