25
 energy: 3.009174296843 xtb: 6.6.1 (8d0f1dd)
C            3.20260913349784        1.10374490810632        0.30114156729116
N            2.25513394331506        0.09802767544093       -0.03407120652420
C            2.58570092633395       -1.18332569739173       -0.39224556645441
N            1.42833981007180       -1.92442230286231       -0.39842119739597
C            0.37885907761647       -1.13163607710272       -0.17481386202807
C            0.86800485304457        0.12044474466105        0.11244086916029
C            0.02274771209373        1.22963727691716        0.08257582741898
O            0.37633755963166        2.37821936672401        0.37149495198118
N           -1.33439583890216        0.94476410358140       -0.25050398496150
C           -2.18435895560206        2.13195644024235       -0.33607230271524
C           -1.86248949291397       -0.31494184865697       -0.21792047317137
O           -3.04617962235496       -0.54967622114599       -0.32832990340796
N           -0.95088486254373       -1.39209896670921       -0.05534416375250
C           -1.43496804563347       -2.68647808620906        0.27828730318461
H            3.70618231318349        0.89837535837702        1.24309413714307
H            3.97326300996415        1.16197184969790       -0.46572520538075
H            2.65915655992775        2.03718229622184        0.34536862996559
H            3.57598166948415       -1.56482416458809       -0.32987855147064
H           -1.55193555056168        3.00043592823004       -0.12590428003798
H           -2.59445235154122        2.22745592178712       -1.33334177247541
H           -2.99719046752531        2.10007966484322        0.38689486887906
H           -0.99397323013518       -3.01834349131553        1.21619032060865
H           -1.17319889402506       -3.36847224657441       -0.51861466268191
H           -2.51424036273979       -2.59172274902691        0.34783953002750
H            1.33149570792021       -2.82872059427542       -0.78905467211843
