25
 energy: 188.322282457532 xtb: 6.6.1 (8d0f1dd)
C            3.21558953532022        0.97058547041486        0.71422041403573
N            2.43012413554816       -0.09409383522729        0.15509007114217
C            2.80207495984239       -1.09802539918684       -0.68601014997143
N            2.07370036582982       -1.70056144516796       -1.50218709461368
C            0.08162248448026       -1.27288527074391        0.01692931410399
C            1.04111439644417       -0.08306996800442        0.36711724742284
C            0.26597419650281       -0.29025726846181       -1.05053737794783
O            0.35432011392638        0.91811637243005       -0.38533990570632
N           -2.09018319514819        1.63955103784862       -0.81692193916741
C           -2.43449836656207        2.94670885540492       -0.56170165994664
C           -2.26716741766445        0.53254992703588       -0.47033815988481
O           -2.19658381197278       -0.60913556075040       -0.30490236902009
N           -0.31285592099248       -2.32975942555431        0.43676712285917
C           -1.31833609056528       -3.08350777583206        1.02371459019821
H            3.75499396701833        0.56270003793170        1.55971659465333
H            3.89726334142121        1.40022018436245       -0.01937920103977
H            2.57417835601426        1.76570884662253        1.09681488479318
H            3.83482471736133       -1.39153645068920       -0.65308819310331
H           -1.58326090006454        3.46382848893047       -0.12594895195824
H           -2.68076581055553        3.31253529030477       -1.54099218827395
H           -3.27659926592839        2.93748179379912        0.11463154106259
H           -0.89978938575676       -3.24035250075220        2.00871939374891
H           -1.39371454755960       -3.98491634630770        0.43802148247284
H           -2.29993756524299       -2.59754060099901        1.13113745954653
H            1.03797878691357       -0.81309286517493       -1.74794275952279
