72
 energy: -99.340486881726 gnorm: 0.001509391597 xtb: 6.6.1 (8d0f1dd)
N           -2.67083302386121        2.99726786875487        2.67935173211522
C           -2.43209341211419        2.08150321357861        1.86314782279257
C           -3.22426187111548        1.85444426084416        0.60162727796927
C           -3.88231510174285        0.48481985174359        0.65351089040902
C           -4.48598846024190       -0.03875247587138       -0.49082744576542
C           -5.06967908839905       -1.29517965816924       -0.49120911131807
O           -5.67443310732291       -1.87353304457766       -1.54866299021816
C           -5.83092454685200       -1.14103292774277       -2.74087634998759
C           -5.04171439588862       -2.07981594366706        0.69468546164339
O           -5.59418016535213       -3.30360019833754        0.59303331508808
C           -5.60653541155791       -4.14715278969554        1.72093348698130
C           -4.46711989870110       -1.54027796268603        1.83549142092746
C           -3.90289904278408       -0.27320358609874        1.81517569154957
C           -2.15983524866217        1.86814704863845       -0.54378691355062
C           -1.30770810648407        0.64846274538761       -0.52489549048709
C            0.00815852424066        0.66688012669332       -0.25376648949245
N            0.84084522865655       -0.42811637320805       -0.15523167210301
C            2.24832311426854       -0.18097379973424        0.09514044044392
C            3.04958968096107       -0.13927888158788       -1.21841868073217
C            4.51103323710402        0.05751812484603       -0.92762935722600
C            5.09094754133621        1.31362111845979       -1.00240867523078
C            6.43622628288506        1.49269848287775       -0.71950405024704
C            7.22926307770326        0.41648127700828       -0.34686780385190
O            8.54137679396782        0.47019352425605       -0.05844064195133
C            9.22247497980027        1.69887291121294       -0.17141120330750
C            6.63989108459499       -0.87633465437529       -0.25403301871737
O            7.47867961224301       -1.86145615300086        0.11851381221175
C            6.99549483478490       -3.17991881030286        0.21990851973664
C            5.29376455103179       -1.03017112936636       -0.54563924818773
C            0.45406925314282       -1.68192882655356       -0.33500126062550
C           -4.31641850727339        2.92774788065622        0.34478249235823
C           -5.38793231932596        2.89296433637842        1.43254174206060
C           -3.75736031954989        4.34154968102818        0.21381137822167
H           -4.50167883906851        0.54543320831480       -1.39629380200130
H           -6.40472459241784       -0.22410782576288       -2.57499538741923
H           -6.38332924368575       -1.79387090947044       -3.41416755864671
H           -4.86472067519989       -0.89320743173872       -3.19223445264235
H           -6.18419603075743       -3.71198081145185        2.54166081183782
H           -6.08451969888437       -5.06777286388672        1.39190555315724
H           -4.59169034647533       -4.36839922509880        2.06633125121313
H           -4.45673387968600       -2.09957619583711        2.75664330482732
H           -3.48663965759150        0.12157261245091        2.72838630439740
H           -2.68858406690249        1.92592223357696       -1.49725136269796
H           -1.54334844161539        2.76134085853778       -0.44006579689253
H           -1.82258704853852       -0.28079744167714       -0.71260633604512
H           -0.52373162846044        0.04164248557449       -3.36322285800906
H           -1.59494948122525        1.37240867022113        1.96410576800661
H            0.50372879937964        1.61093708594605       -0.07599595426371
H            2.64172210435285       -0.97695018672704        0.73147738088238
H            2.36571102482666        0.76778447307110        0.62172207694349
H            2.67791942934709        0.67458253139063       -1.84266519597345
H            2.89633956041156       -1.07830075836142       -1.75406635499166
H            4.49711239536644        2.16554114140626       -1.29617766334161
H            6.86095488352113        2.48007363999963       -0.79572723907639
H            8.83131307844496        2.43985279299627        0.53216814896355
H            9.16567868306267        2.09477257127330       -1.18964649600428
H           10.26008638079617        1.48112589735196        0.07417837802784
H            7.85145157714054       -3.78262718473756        0.51724765590904
H            6.21365204147071       -3.26291893480706        0.98161282360203
H            6.61378693612762       -3.54236299154471       -0.73950065401724
H            4.84069060886658       -2.00790108681759       -0.49348515646759
H           -0.30415775143306       -0.60138739875601       -3.74458445646155
H           -0.56175794823672       -1.91559431281811       -0.57742779013012
H            1.16959507729354       -2.47144646290035       -0.22035461950271
H           -4.79532838793764        2.66507192764086       -0.60588453262352
H           -4.95811422141629        3.18540098716351        2.38546289160532
H           -5.81702655413640        1.89838752881856        1.52905109785711
H           -6.18513474242729        3.58840325418481        1.18367345635656
H           -3.23503972414956        4.62465434116923        1.12248549993405
H           -3.08258160250588        4.43421002982803       -0.63322833748775
H           -4.57861636643754        5.03732455868817        0.06273285178854
H           -2.06194182370708        3.08445347801037        3.48695651045743
