25
 energy: 81.519593131350 xtb: 6.6.1 (8d0f1dd)
C            3.13737919345681        1.40528339870982        0.07433783311908
N            2.43393874697081        0.13353294344171       -0.00415392049002
C            3.13701388409371       -0.92449617768178       -0.16629975799842
N            1.39034109413583       -2.14048014293192        0.00464350849987
C            0.46398354840581       -1.23342675444029        0.01651894905992
C            1.01245428850961        0.06973072869394        0.05087045133643
C            0.14159593961393        1.21406763098397        0.08759634664631
O            0.54938096650242        2.36972965205670        0.12987914691161
N           -1.23772258585695        0.97885866046755        0.04768062289267
C           -2.17877800035890        2.11935684174415        0.04334988602453
C           -1.80739492254657       -0.25871893579600       -0.02487308294152
O           -3.01224905898028       -0.39678720770453       -0.10156244643295
N           -0.94182745499276       -1.35794203517043       -0.00275880450336
C           -1.60352425106773       -2.63905758703291       -0.07990353986312
H            3.02314610091477        1.90840440373421        1.05300656106908
H            4.45434974371286        0.86276858704946        0.14133546730584
H            2.82978348899254        2.09569054850438       -0.72145603664419
H            4.09680098170691       -1.45576681744277       -0.15747061708512
H           -1.57587019833467        3.02054977571223        0.08401006108495
H           -2.79771479017528        2.15299074685539       -0.86262002815305
H           -2.85521319595010        2.07753513914344        0.90296306687329
H           -1.39345402234054       -3.24630656868521        0.79769295833655
H           -1.31564250808195       -3.17280097321266       -0.98716378174705
H           -2.67952295748709       -2.43362453096663       -0.09379872253325
H            1.13797356176775       -3.11324553967265        0.06137336851823
