25
 energy: 14.856572210101 xtb: 6.6.1 (8d0f1dd)
C            3.22668310754868        1.28905425783510        0.07194578773757
N            2.39735621343036        0.11019352055174       -0.03435165860742
C            2.85582137279709       -1.24433736261846       -0.05231269615863
N            1.57115187280237       -2.01211932397092       -0.00490600275086
C            0.49696863724023       -1.15395427794908       -0.00133781351952
C            0.99004696826377        0.13094002311055        0.00183126202769
C            0.13153243216545        1.27090437481746        0.03013272432715
O            0.50717997005294        2.44069142906921        0.05590930970731
N           -1.27475174535038        0.98667087695825        0.01753588705384
C           -2.20364028875731        2.11657398619737        0.00493454212187
C           -1.81307565635161       -0.26356909182075       -0.02999225947217
O           -3.01930976306081       -0.44158562542670       -0.09058238608721
N           -0.89288320189994       -1.35645183013220       -0.01359213977411
C           -1.53171534464229       -2.64864119911599       -0.07210644000786
H            3.32187443556777        1.61886935830101        1.12924851348484
H            4.30601653676156        0.90886485858820       -0.21998952426918
H            2.75005457597049        2.10557741409578       -0.47794673478272
H            3.85660583925354       -1.63725796350796       -0.08521362078952
H           -1.61406021654549        3.03334083084962        0.03403541909339
H           -2.81623137086680        2.12157944290877       -0.90117553698282
H           -2.87082915978025        2.06445300922639        0.86919298624082
H           -1.29481016095032       -3.23544480040404        0.81148837414470
H           -1.23885852412889       -3.18157983158138       -0.97634071095323
H           -2.61527352898939       -2.48157635710281       -0.08799139888665
H            1.30195209095591       -2.99108317183826        0.07237096742726
