25
 energy: 135.866177046134 xtb: 6.6.1 (8d0f1dd)
C            2.16455541952023        1.75193640918937        0.02391644483720
N            2.17365766338507        0.37143887010252        0.08695540770559
C            4.66982131710856       -0.42149958496381       -0.29950117901837
N            1.08686693119174       -2.34060072261729        0.04372383582852
C            0.32338586069141       -1.32307841872543        0.03806188402308
C            0.90366734578267       -0.00598010141523        0.07682370066578
C            0.01797157864300        1.12364563400411        0.07403051210601
O            0.71211931219514        2.24005359042206        0.04137136242757
N           -1.32333038628804        1.00798861081728        0.06470841335867
C           -2.21373116099686        2.16604883272191        0.08395309920309
C           -1.95160811249296       -0.25552389354646       -0.01571956091922
O           -3.16380564628208       -0.31483440541465       -0.07416442669820
N           -1.09972105432885       -1.33850984863516       -0.02315588609230
C           -1.77901856361641       -2.62844252203559       -0.10430296859534
H            2.43057737599913        2.28736303053135        0.90102113886814
H            5.73601211563369       -0.13597833353461        0.03627994258929
H            2.67076525452058        2.17767357146586       -0.85739005206342
H            4.69813124291898       -1.50450791020118       -0.18248292953266
H           -1.61377535871871        3.06945263638604        0.14159634975140
H           -2.83052977104974        2.18355386710508       -0.81613396155165
H           -2.89240495192949        2.11797295083484        0.94020076643451
H           -1.66254767251047       -3.23040078156772        0.79786703930566
H           -1.47953103542537       -3.21109881063634       -0.97812631530129
H           -2.83596212684661       -2.39838539496453       -0.20481444044030
H            0.68149148007730       -3.25904090680042        0.00487272080053
