72
 energy: -99.683811752194 xtb: 6.6.1 (8d0f1dd)
N           -1.62900817795864        2.90963916440500        2.29901278498271
C           -1.60284943173075        2.19170161993683        1.26624541382396
C           -2.75213113244148        2.06925844598161        0.30188978283012
C           -3.31830236124164        0.65877994406783        0.37260025690873
C           -4.28362517091941        0.25304049361154       -0.55179102403464
C           -4.83763164175109       -1.01176127222061       -0.51061129329356
O           -5.79455330042856       -1.47847645357096       -1.36314064506626
C           -6.35229050371889       -0.59350782250211       -2.30004402029154
C           -4.41292171219187       -1.92898014839618        0.47624744230940
O           -5.00647669634949       -3.15573891955533        0.42893150163225
C           -4.67572016199207       -4.10030315323095        1.41355895422227
C           -3.46195788646924       -1.52558230594152        1.39391002569514
C           -2.92547942496045       -0.24331244728204        1.34390023848939
C           -2.17311110097689        2.33110802002255       -1.11533728450212
C           -1.32051040909586        1.18839082977173       -1.70382255692531
C            0.00940065194322        1.08071321142743       -1.05863395537453
N            0.59345674947230       -0.09987761139277       -0.63523416492906
C            1.97308147641543       -0.11384343231918       -0.25286747774469
C            2.94050282691270       -0.64269053589513       -1.34694150217822
C            4.37331341859159       -0.50913132629381       -0.90348514372449
C            5.09036418265359        0.65226187734624       -1.13613770723395
C            6.38525931911421        0.81707162428788       -0.65428955558046
C            7.04572144132663       -0.14265500698627        0.10274685668436
O            8.27815483464906        0.04642438886154        0.74349955249021
C            9.33171613443812        1.01712152670935        0.41874557317979
C            6.32955073814977       -1.37671995807813        0.28523480545672
O            6.97081700612546       -2.39084413874746        0.94402494100761
C            6.31198289879219       -3.61638645171857        1.17404541797928
C            5.02737493923686       -1.51918350409190       -0.19635495223008
C           -0.11411956079465       -1.34806762856841       -0.70832350199609
C           -3.90838613783099        3.07051195003958        0.58630172835268
C           -4.58838810180960        2.78032523187145        1.92316982257816
C           -3.45972864360422        4.53009543013047        0.54584614812938
H           -4.60698753921596        0.94609976257303       -1.31079741271283
H           -6.80728818384766        0.27629343671061       -1.81399921195097
H           -7.12598083521868       -1.16345381549634       -2.81262122438608
H           -5.61145821415003       -0.25415613549896       -3.03245201712613
H           -4.91017672058983       -3.73648161508216        2.41967337317680
H           -5.28921342871043       -4.97348564067555        1.19597082651749
H           -3.61801390348682       -4.38246509069242        1.36768194668768
H           -3.12799803570920       -2.19901341739561        2.16761144224696
H           -2.20248551965570        0.04376185585241        2.09154385308422
H           -3.00130355954311        2.52981573298099       -1.79815293406211
H           -1.55627014919441        3.23062379233552       -1.07722389266481
H           -1.87291758436597        0.25231355644791       -1.63796636333726
H           -1.19494705470966        1.41851790852318       -2.77462642515725
H           -0.72078102778739        1.62725644767630        0.92701821361931
H            0.65583204204092        1.93981004525518       -1.07901396400935
H            2.08332925086563       -0.73354143851610        0.64477338173351
H            2.27017213022996        0.90576121718114        0.00158527824902
H            2.76900574469451       -0.05676667753705       -2.25280871124822
H            2.68670246818820       -1.68243556604596       -1.56259804188022
H            4.62636981395331        1.45648733574860       -1.68902440585177
H            6.88719189252941        1.74836590370132       -0.86363759650777
H            9.79408377487846        1.92526091286337        1.09613297492378
H            9.07978663451049        1.49383215789236       -0.52471112328801
H           10.21001362302330        0.37422533654662        0.37235304759878
H            7.03882162999602       -4.23888188589435        1.69597282873777
H            5.42616026943912       -3.50280354817971        1.81000793069255
H            6.02045094565193       -4.12308086302560        0.24592814960052
H            4.47917224059651       -2.43898096480820       -0.02902182409285
H           -0.28160023844379       -1.67777814417541       -1.74052193053679
H           -1.08516139030969       -1.26187532213146       -0.21188983304688
H            0.46555933083883       -2.11158066203241       -0.19321028817629
H           -4.65249881028063        2.92646935173396       -0.20667277486532
H           -3.88164448035582        2.92883190495305        2.73264592205974
H           -4.95690159178108        1.75778915414568        1.95867722598055
H           -5.43061164348723        3.45500467742531        2.06090799270232
H           -2.69585375560264        4.70526850706429        1.29657424752931
H           -3.06938784146397        4.80368955424899       -0.43112835061957
H           -4.30967507513934        5.17431274096270        0.76049937970671
H           -0.77391456408183        2.91299916005496        2.85241320815273
