25
 energy: 38.499671834802 xtb: 6.6.1 (8d0f1dd)
C            4.89197990878012        0.99460193439380        0.26513405000989
N            2.00441162814354        0.31437490540593       -0.29704712011000
C            2.33798758094900       -0.93003383098068       -0.13109068273967
N            1.24256218122393       -1.73479023342132        0.02089315846662
C            0.15827653520064       -0.90990722197594       -0.01205511765725
C            0.62556485504115        0.38780899411004       -0.12672681124765
C           -0.30716581967857        1.50225453601161       -0.02276623147011
O           -0.07049984447311        2.68019591176433        0.04277970147816
N           -1.64050292898048        1.03172057746746       -0.06402543364763
C           -2.70226938320488        2.01753746058866       -0.10128883020266
C           -2.09986161028039       -0.26887029578040       -0.06218717288499
O           -3.27601600659682       -0.55073162852185       -0.11158645444093
N           -1.14684801641782       -1.27880852571562        0.02507334797206
C           -1.58891757279252       -2.65985016985559       -0.01643729743870
H            5.41534817545166        1.06237039130390        1.19513057066619
H            5.57976027693279        1.11713924772184       -0.56468485112007
H            3.74766958436604        1.10062546450152        0.11685272686163
H            3.32864563692980       -1.34649717606606       -0.03804309050229
H           -2.26635094044539        3.01331890517600       -0.11294257561990
H           -3.31103490909278        1.85609733509281       -0.99044898229172
H           -3.34337112795921        1.89114970527682        0.77049902095919
H           -1.26434036252887       -3.20141816779036        0.87245171405077
H           -1.23671393385816       -3.17923360034001       -0.91554807676837
H           -2.67672035889749       -2.63910849785413       -0.03824777888479
H            1.22250149686265       -2.73849214971900        0.01398229772132
