25
 energy: 41.500810523274 xtb: 6.6.1 (8d0f1dd)
C            4.60935345652078        0.94277505293101        0.17633344448777
N            2.14602804650207        0.29072872936615       -0.26170687888425
C            2.41274207999768       -0.96232253853589       -0.09514560343503
N            1.29074413367676       -1.73544079887204       -0.01381782858176
C            0.23596952296213       -0.87504082819523       -0.02017330382277
C            0.75255046749429        0.41022634856517       -0.08659888258410
C           -0.19157468754760        1.52205235846858       -0.03147869289027
O            0.01383766151293        2.70970521764051        0.00194903376326
N           -1.53375492193531        1.03865767926002       -0.05517892162206
C           -2.57634705596008        2.04819969018664       -0.08676084430420
C           -2.01892849715245       -0.24555432619243       -0.06362197829562
O           -3.19643994577996       -0.51872859639681       -0.10301564700345
N           -1.07197068341972       -1.25276749948000        0.00323866007293
C           -1.54078895792766       -2.63074731315765       -0.00849321334811
H            5.08349124819141        0.80721667163384        1.09694808056017
H            5.23189222940425        0.98242357606944       -0.68275522546135
H            3.68421558689742        1.40994317310062        0.19095694701119
H            3.37651699036200       -1.44742451846774       -0.02447055433669
H           -2.10046626443482        3.02087188049472       -0.09265102205398
H           -3.18967179846846        1.92860980202184       -0.97916167102727
H           -3.22428285502196        1.94957889249865        0.78378798114109
H           -1.22999898018547       -3.16266323486744        0.89103623094926
H           -1.20416037213854       -3.16139439514814       -0.90126227346033
H           -2.63100526939110       -2.58884666127869       -0.03399795129607
H            1.21802256233656       -2.74742084724986       -0.02534793207604
