25
 energy: -5.929119836044 xtb: 6.6.1 (8d0f1dd)
C            3.33423936128940        1.15408371632973        0.09648546048981
N            2.33718246559397        0.12168631788562        0.03797689015062
C            2.60748107979801       -1.23804113588418        0.03212961081457
N            1.41477423898093       -1.92313624538009       -0.00070751215744
C            0.40215845774614       -1.03460770178222       -0.00941390198245
C            0.93332050168835        0.25322993848682        0.01475227701888
C            0.09990907165276        1.39795399383202       -0.00665098076261
O            0.45894242593637        2.57897707516241       -0.00466490153768
N           -1.28433122468086        1.04666479557017       -0.03254559268600
C           -2.24835876847821        2.13441406879002       -0.05230163423672
C           -1.82916180589509       -0.19886371682892       -0.04829834590002
O           -3.02729065825086       -0.39136091863801       -0.07087568668560
N           -0.93993582127623       -1.28820878444522       -0.03780605267767
C           -1.47549359550052       -2.63029918242729       -0.05758234325786
H            3.83386189032807        1.20217217817791        1.06906458471728
H            4.10646879340829        1.03005805458406       -0.67002881133432
H            2.81824871365010        2.09025765506628       -0.05901371022091
H            3.57556269143428       -1.67438867335492        0.03923639926874
H           -1.69446270846559        3.06768621625952       -0.02980499645189
H           -2.85625424201825        2.07729767199480       -0.95589008235194
H           -2.90722807239511        2.06306337282807        0.81344040846972
H           -1.17442327279040       -3.18075132350174        0.83612031783551
H           -1.14981226242254       -3.16600559809552       -0.95123707564559
H           -2.56256436784628       -2.54100716215350       -0.07222809540925
H            1.35152879815689       -2.92876123819930       -0.01559039022358
