  25
        -42.10359824
 C          3.2126935685        1.1569783520        0.0143606616
 N          2.2697158309        0.0697438722       -0.0062063319
 C          2.5552291016       -1.2271402309       -0.0092274769
 N          1.4173375876       -1.9516341901       -0.0167305582
 C          0.3614996450       -1.0748509963       -0.0175535263
 C          0.9030029278        0.2045929474       -0.0119804779
 C          0.0786102739        1.3951643414       -0.0221220757
 O          0.4832426581        2.5349240464       -0.0374230604
 N         -1.2804654814        1.0670695116       -0.0171387934
 C         -2.2312397314        2.1756433688       -0.0094194059
 C         -1.8603594487       -0.1722724663       -0.0017653504
 O         -3.0417072222       -0.3577632199        0.0211074640
 N         -0.9688630938       -1.3271483667       -0.0192595538
 C         -1.5280354235       -2.5478284673       -0.0269800377
 H          3.7172004189        1.2004558210        0.9805565390
 H          3.9597801157        1.0240031217       -0.7667460598
 H          2.6742111887        2.0911061688       -0.1440035125
 H          3.5428432360       -1.6454540004       -0.0055456748
 H         -1.6655108727        3.1033419322       -0.0408702010
 H         -2.8887272168        2.1033043696       -0.8741346856
 H         -2.8386122610        2.1342441599        0.8935789552
 H         -1.4854403177       -4.7471548703        2.1064934103
 H         -0.9211719451       -3.4285392436       -0.0254718696
 H         -2.6009178527       -2.5989305581       -0.0175964890
 H          1.3669331644       -2.9606336883       -0.0135854576
