25
 energy: -42.193133219309 gnorm: 0.005696648318 xtb: 6.6.1 (8d0f1dd)
C            3.33085357795548        0.89725782151112        0.08598398915786
N            2.38977639735083       -0.04452915310289        0.01705627381848
C            2.58744096180405       -1.37558054421705       -0.10930878165044
N            1.38454506375428       -2.03497161931024       -0.12691508077035
C            0.40061174089249       -1.13136056154492       -0.00714682507026
C            0.99826216894632        0.14565318441425        0.05427605259705
C            0.18390754218510        1.27615222081986        0.01667005596235
O            0.58317675740757        2.54001818378902       -0.07376277246179
N           -1.16249072792069        1.06267293401518        0.04694349915272
C           -2.08308249601200        2.19048773517523        0.02730878243421
C           -1.78320818722531       -0.19148420858217        0.06912721021230
O           -2.97522562469037       -0.29642983592792        0.10964209941683
N           -0.94166192832088       -1.30653539444509        0.02421120732733
C           -1.53355151395887       -2.63045661353660        0.00499592897285
H            3.10494893707960        1.87383461361857        0.46523027524103
H            4.35998928983904        0.59483502995301        0.00435769895415
H            1.53226144986208        2.60951137146531       -0.26705054984455
H            3.54128808317022       -1.84931666074675       -0.18281938051768
H           -1.51909306430456        3.11691756322739        0.03966753078039
H           -2.70227757561303        2.13925507994250       -0.86799900790862
H           -2.73826337881516        2.13620727667235        0.89599906510360
H           -1.19707768855289       -3.20870814175099        0.86580070803781
H           -1.27720615307270       -3.15021389582621       -0.91861343253590
H           -2.61439029565183       -2.50899041859018        0.05695906920208
H            1.29089817799127       -3.03598742542289       -0.19944199771144
