25
 energy: 59.979928577631 xtb: 6.6.1 (8d0f1dd)
C            3.77871070247079        0.88153783183865        0.10920634163594
N            2.78105416472585       -0.13852284139934       -0.00391737628259
C            3.04588419742918       -1.46679816037362       -0.05174057851884
N            1.86710529530915       -2.15157635166989       -0.08930249021256
C            0.78066357942285       -1.28647134514889        0.03744842748854
C            1.38968697677812        0.05004274052302        0.13042370518693
C            0.76439905729953        1.21046056327957        0.18148532687859
O            0.11388324349904        2.19022413019297        0.31977799694769
N           -3.02503574928083        1.52878757671465       -0.25656994972551
C           -3.29883721323778        2.91335769580542       -0.18058182361454
C           -3.38941154644991        0.43316125362203        0.00785363519538
O           -3.65080767011918       -0.68646330715543        0.16317698662786
N           -0.47037614372056       -1.49243065938995        0.04409264884500
C           -1.05638895440976       -2.80074442969520       -0.03774645100357
H            3.76841216591264        1.35634247701796        1.09012677482061
H            4.75551045618933        0.42038123555653       -0.02364019100403
H            3.60567309975511        1.63206425065071       -0.66212162509296
H            4.02089943674309       -1.89280882932950       -0.12725569668174
H           -2.36432688231177        3.43928596362130       -0.08312998109906
H           -3.78437885764908        3.25819416936603       -1.09588125867954
H           -3.92823407057359        3.14715708217670        0.67800564047826
H           -0.54400562352169       -3.50595485606054        0.62515539082980
H           -1.03409283453589       -3.19324471907825       -1.05948149158000
H           -2.10572962435019       -2.68750819267716        0.24184073173948
H            1.79993708895446       -3.15401910845786       -0.12995317147387
