  72
        -99.33487351
 N         -0.6809163238        1.7975910912        0.8066187040
 C         -1.9147917140        2.0316256518        1.2280328120
 C         -3.0764141230        2.1273429548        0.3060236448
 C         -3.7926658842        0.7908898351        0.4418791918
 C         -4.4695675500        0.1854031683       -0.5454448677
 C         -5.1324103211       -1.0912089209       -0.4656080796
 O         -6.1973972130       -1.3769158459       -1.2529453962
 C         -6.8371036701       -0.3440252783       -1.9631698944
 C         -4.7311184805       -2.1287374328        0.3580497028
 O         -5.4935500698       -3.2498417305        0.3423886024
 C         -5.0550934620       -4.3880510291        1.0443985132
 C         -3.5573214415       -2.0713362307        1.1279861388
 C         -2.6006643782       -2.2610443721        1.8432151364
 C         -2.5499846650        2.3696108767       -1.1170003280
 C         -1.4896307532        1.3369676076       -1.4720453033
 C         -0.2626720890        1.5150455700       -0.5804193821
 N          0.6053133572        0.3879863723       -0.6298078348
 C          2.0039146136        0.5672815101       -0.3078132933
 C          2.8837114976       -0.1491268949       -1.3485742695
 C          4.3266166078       -0.1194923077       -0.9396605157
 C          5.0974422858        1.0171006235       -1.1312320464
 C          6.4239157247        1.0517713486       -0.7318861880
 C          7.0105615445       -0.0530702735       -0.1302125624
 O          8.2888363358       -0.1336739525        0.2883019926
 C          9.1451197948        0.9669090393        0.0901544265
 C          6.2283729087       -1.2222762288        0.0741845719
 O          6.8735404124       -2.2529062820        0.6590469666
 C          6.1911111497       -3.4685250711        0.8522836865
 C          4.9021059941       -1.2299158280       -0.3285632638
 C          0.0373911181       -0.8981292421       -0.2740123670
 C         -4.0406354766        3.2880042497        0.7196148093
 C         -4.8252438233        2.9874333320        1.9939138453
 C         -3.2958349170        4.6135087605        0.8805719052
 H         -4.5821866830        0.6869944442       -1.4967452300
 H         -7.0034956792        0.5355573071       -1.3348948353
 H         -7.7954838384       -0.7549933023       -2.2756506857
 H         -6.2690272120       -0.0570730492       -2.8543572542
 H         -4.9602266439       -4.1889729233        2.1162444333
 H         -5.8216168124       -5.1436485925        0.8780461564
 H         -4.0945151486       -4.7483138952        0.6643039624
 H         -3.7336057151        0.3298217277        1.4159785833
 H         -1.7225966581       -2.3279606397        2.4195326033
 H         -3.3663290033        2.3387343893       -1.8351069722
 H         -2.1084317985        3.3640337953       -1.1682115404
 H         -1.8998228624        0.3367051201       -1.3449274969
 H         -1.1753381899        1.4478526026       -2.5089622010
 H         -2.0763026960        2.0906644814        2.2922941577
 H          0.3072667981        2.3922701019       -0.9199221406
 H          2.2442764321        0.1735943600        0.6914065310
 H          2.2461569661        1.6317828171       -0.3146746705
 H          2.7504140089        0.3447725094       -2.3115112767
 H          2.5442918750       -1.1798996052       -1.4459444345
 H          4.6671937521        1.8846958765       -1.6077802001
 H          6.9990183169        1.9474867102       -0.9005242142
 H          8.7959772304        1.8496227773        0.6347675712
 H          9.2462027180        1.2091505349       -0.9720181980
 H         10.1119111482        0.6592524121        0.4839353291
 H          6.9180330119       -4.1444339621        1.2984334545
 H          5.3429810099       -3.3492645936        1.5344034475
 H          5.8412815796       -3.8877082456       -0.0962792666
 H          4.3007517303       -2.1137419687       -0.1830910837
 H         -0.2553757665       -1.4506865382       -1.1697901343
 H         -0.8432498139       -0.7906903383        0.3648292332
 H          0.7752273397       -1.4922778765        0.2624198910
 H         -4.7591874775        3.3894662377       -0.0998972186
 H         -4.1682778045        2.8841538303        2.8532656810
 H         -5.4141738508        2.0803749115        1.8911106173
 H         -5.5066358038        3.8104168372        2.1957807625
 H         -2.5083309564        4.5290437386        1.6257419111
 H         -2.8557219320        4.9520156490       -0.0525692946
 H         -3.9920571664        5.3808796138        1.2089444378
 H          0.0554282516        1.7015207403        1.4928997090
