  72
        -99.34828115
 N         -1.1904706557        2.5384197557        2.1260652278
 C         -1.3961315993        1.8084539083        1.1317909745
 C         -2.6594103530        1.8293670577        0.3141738337
 C         -3.3348666514        0.4693136610        0.3785538636
 C         -4.3668716368        0.1625148474       -0.5100487514
 C         -5.0421711344       -1.0448326754       -0.4473237464
 O         -6.0494224408       -1.4172987640       -1.2651032547
 C         -6.5284795594       -0.5081950930       -2.2275913666
 C         -4.6830358969       -1.9971168199        0.5438605063
 O         -5.4015503261       -3.1382116848        0.5395929629
 C         -5.1810399352       -4.0899111478        1.5538970370
 C         -3.6562769967       -1.6880349199        1.4218034274
 C         -2.9924589269       -0.4705932693        1.3392760806
 C         -2.2302155753        2.1540187584       -1.1414021428
 C         -1.5427539582        1.0004765107       -1.9005469861
 C         -0.1261006273        0.8076346658       -1.4970934203
 N          0.4405018927       -0.3361127289       -1.1175576441
 C          1.7360100231       -0.4630906598       -0.8112976122
 C          2.6854822404        0.6725934918       -0.9464467475
 C          4.1163095781        0.4358417096       -0.5498624008
 C          4.9614096921        1.4937144706       -0.4304942025
 C          6.3218081805        1.3528706153       -0.1190328491
 C          6.8821680537        0.0889765398        0.0731309656
 O          8.1819901582       -0.1514542697        0.3607937131
 C          9.0684172474        0.9387214005        0.4764901842
 C          6.0749163243       -1.0457895010       -0.0357070506
 O          6.6743802365       -2.2290804031        0.1573786605
 C          5.9412409453       -3.4260974173        0.0654956709
 C          4.6161855173       -0.9533630233       -0.3343151337
 C         -0.3942845449       -1.5210831524       -1.0011337491
 C         -3.6923821576        2.8877692550        0.8065259317
 C         -4.1828498471        2.5762559275        2.2189125402
 C         -3.1651380433        4.3189790060        0.7498934022
 H         -4.6568931267        0.8864075626       -1.2530793692
 H         -6.8975442383        0.4112537459       -1.7632210872
 H         -7.3532619271       -1.0164533738       -2.7232796152
 H         -5.7598301688       -0.2625160204       -2.9677881899
 H         -5.3499793870       -3.6628625246        2.5469778881
 H         -5.9054987347       -4.8816962372        1.3737044420
 H         -4.1699028339       -4.5061591607        1.5021857648
 H         -3.3708690595       -2.3859084129        2.1921106288
 H         -2.2218990274       -0.2509104669        2.0625510412
 H         -3.1169037955        2.4471052386       -1.7027876998
 H         -1.5573860801        3.0119741634       -1.1238165931
 H         -2.1335620581        0.0936283876       -1.7956265368
 H         -1.5525798277        1.2810084163       -2.9613166061
 H         -0.6478243310        1.1069038172        0.7307286105
 H          0.5088714234        1.6712458725       -1.5827446325
 H          2.0650831138       -1.4331057936       -0.4965733597
 H          4.0605397576       -1.4121267680        0.4994067470
 H          2.3195474289        1.5343135584       -0.3699987366
 H          2.6836609296        1.0043719949       -1.9993126652
 H          4.5834615287        2.4937513647       -0.5889709971
 H          6.9291723980        2.2368387848       -0.0384459122
 H          8.7717194590        1.6147967097        1.2839509162
 H          9.1427552072        1.4969548743       -0.4616569188
 H         10.0361141871        0.5001394405        0.7120026205
 H          6.6521405369       -4.2219235229        0.2805093903
 H          5.1292867810       -3.4618800555        0.7986107848
 H          5.5306088971       -3.5727642884       -0.9384765119
 H          4.3850028333       -1.5661157662       -1.2191703043
 H         -0.7842267164       -1.8031329710       -1.9790423702
 H         -1.2316073816       -1.3329267303       -0.3257964684
 H          0.1893364573       -2.3503980830       -0.6096151490
 H         -4.5522425654        2.8154788088        0.1302242316
 H         -3.3597368890        2.6466600810        2.9228757256
 H         -4.6137253168        1.5794522756        2.2756855680
 H         -4.9457190101        3.2946871449        2.5066706733
 H         -2.2846410916        4.4193441387        1.3766721043
 H         -2.9213710124        4.6222753641       -0.2646706214
 H         -3.9293076566        4.9946811394        1.1251255045
 H         -0.2902283500        2.4648215594        2.5901735656
