25
 energy: 0.000000000000 xtb: 6.6.1 (8d0f1dd)
C            3.23720163006194        1.16630919979326        0.08434469647475
N            2.29877817382611        0.07527477071623        0.03981603040599
C            2.58028210190900       -1.21425402444508        0.03006176031096
N            1.43813958087363       -1.93419271955128        0.00098261760884
C            0.39035688448383       -1.05887472636071       -0.00790371836672
C            0.93510056364412        0.21347819449412        0.01709077491437
C            0.09450143893243        1.40504303904423       -0.00410947031874
O            0.49712751527797        2.54126714362870       -0.00342325688240
N           -1.25076640035757        1.06271879480407       -0.03085478223738
C           -2.21907211982101        2.15522099834493       -0.05001256985998
C           -1.81739487048744       -0.20012725993278       -0.04692818574614
O           -2.99983886758376       -0.37846417018721       -0.07008878229737
N           -0.92618586207120       -1.30210215599479       -0.03682761578324
C           -1.46982264913417       -2.64643102187190       -0.06029820460571
H            3.71247264356769        1.21471455160235        1.06488849150277
H            4.00791497605742        1.03430808813993       -0.67357694370751
H            2.69910007168542        2.09770118228144       -0.09130154882931
H            3.56654120610678       -1.63682992603973        0.04233140067262
H           -1.67107961066214        3.09322851271934       -0.02552706933167
H           -2.82428953597071        2.09428624779827       -0.95318082946668
H           -2.87644029173232        2.07745725625962        0.81450067533302
H           -1.17061996399332       -3.19584890659852        0.83242232437030
H           -1.14560257411436       -3.17511610292205       -0.95688275822323
H           -2.55549792440841       -2.55659984320617       -0.07459039797972
H            1.38130855184625       -2.94313852034425       -0.01389874181052
25
 energy: -1.339837411837 xtb: 6.6.1 (8d0f1dd)
C            3.23372072112349        1.17974676909918        0.08612413344468
N            2.29662096784513        0.08959461405957        0.03773626688512
C            2.59041582415477       -1.24306710089229        0.03035376060831
N            1.44039263822798       -1.99964795783370        0.00016850498572
C            0.40333248348681       -1.08260859343135       -0.00839911005886
C            0.92243114439296        0.21248376001213        0.01510777269868
C            0.09643415626564        1.40111138616629       -0.00468219803112
O            0.49285898751148        2.56825019969039       -0.00341287408287
N           -1.26659079315342        1.06605150894113       -0.03087067797134
C           -2.23204355875928        2.16364026538997       -0.05006770861438
C           -1.82224171400898       -0.18804345124762       -0.04712837008662
O           -3.01918557324506       -0.36851914734575       -0.07051857440794
N           -0.93262468016947       -1.29516157039080       -0.03681962540869
C           -1.46993579791548       -2.63036319579310       -0.05980558387401
H            3.71608686339089        1.23016272763747        1.06644319630303
H            4.00476273876727        1.04675208587684       -0.67455749032969
H            2.70219642978612        2.11486711007370       -0.08939636223990
H            3.57293063514331       -1.64637632958250        0.04352451449315
H           -1.68205279199780        3.10237850450720       -0.02545999129904
H           -2.84052307598777        2.11067918701768       -0.95297957181960
H           -2.89346125964450        2.09380902404520        0.81346071140711
H           -1.15358560166909       -3.17220119659753        0.83269113977519
H           -1.12914533877353       -3.15141996805051       -0.95574341518618
H           -2.55482703669654       -2.54260989182830       -0.07380978106527
H            1.43624829986127       -3.07048013735128       -0.01492476997821
25
 energy: 6.859355400961 xtb: 6.6.1 (8d0f1dd)
C            3.22893213486808        1.18482439364770        0.08722064273569
N            2.29121553116891        0.09554136373710        0.03436812002988
C            2.59235514526875       -1.26480741709232        0.03132420691891
N            1.44043115335586       -2.05965520187573       -0.00023774232583
C            0.41385816539610       -1.10857185334742       -0.00913665392452
C            0.90804944722870        0.20236532727689        0.01269809436727
C            0.09726633129351        1.38660850205210       -0.00512246103159
O            0.48287550757221        2.56682457258069       -0.00307490409122
N           -1.28573479417988        1.07551410538727       -0.03082482587649
C           -2.24590679290611        2.17890326392471       -0.05015999903349
C           -1.82428656388630       -0.17090152284456       -0.04719769971392
O           -3.02581606262418       -0.35902203566003       -0.07097357518906
N           -0.93938219018123       -1.27968275751083       -0.03665360316871
C           -1.46968125971524       -2.60979803901421       -0.05920638370646
H            3.71688384690673        1.24218820584401        1.06669862332441
H            4.00118080262676        1.05891016105708       -0.67563655078467
H            2.70232492451113        2.12439687909344       -0.08672340501831
H            3.57781049785083       -1.64387194722139        0.04525141914273
H           -1.69443980593941        3.11786172050419       -0.02516763080030
H           -2.85762190217042        2.13136130136525       -0.95242981327404
H           -2.91159526469281        2.11424856171693        0.81173104036193
H           -1.13671143930797       -3.14558293085095        0.83204329485498
H           -1.11319920788763       -3.12485729138415       -0.95362337318642
H           -2.55415833909109       -2.53233147285468       -0.07282415465586
H            1.51756480247090       -3.19143728635904       -0.01530876980763
25
 energy: 12.279999608524 xtb: 6.6.1 (8d0f1dd)
C            3.22698751569744        1.18419586858847        0.08734391354437
N            2.29012147910756        0.09454254964731        0.03227752022311
C            2.58988601430741       -1.27231327758552        0.03213637049275
N            1.43845024299717       -2.07922550497727       -0.00013777888568
C            0.41667712955460       -1.11801603458988       -0.00952774591910
C            0.90383303877651        0.19585688375040        0.01172491311565
C            0.09783756424803        1.38086548830159       -0.00507918355463
O            0.47888939789057        2.56067433132621       -0.00276163895178
N           -1.29426787724855        1.08414487882138       -0.03077768158652
C           -2.25230917163901        2.18814286495273       -0.05030800123126
C           -1.82586832354017       -0.16279962439436       -0.04722177307831
O           -3.02643124766505       -0.35880475806070       -0.07133962463425
N           -0.94137968303633       -1.26907767880853       -0.03637958407778
C           -1.46859049363430       -2.60081593330990       -0.05879920237252
H            3.71501200360957        1.24443672056522        1.06673749000514
H            3.99922713797675        1.06355981187639       -0.67635720099216
H            2.70031511784662        2.12514626187990       -0.08536603729128
H            3.58024216645743       -1.64056155708113        0.04570509359472
H           -1.70142335974040        3.12715223702538       -0.02492975930007
H           -2.86464305326824        2.14078929854647       -0.95246092606654
H           -2.91931801137416        2.12338734402654        0.81085371198597
H           -1.12909055125281       -3.13363544334135        0.83181828796292
H           -1.10620140892896       -3.11298795134048       -0.95256474272964
H           -2.55326431865517       -2.53210786723873       -0.07218005988280
H            1.55752335944972       -3.24352030640812       -0.01537246422299
25
 energy: 14.440652604734 xtb: 6.6.1 (8d0f1dd)
C            3.22715059441600        1.18326004062496        0.08735390411751
N            2.29112771660423        0.09314057515129        0.03122989878943
C            2.58705545868559       -1.27349527553557        0.03290036827292
N            1.43561054290338       -2.08009157963181        0.00014807703285
C            0.41610260287024       -1.11853630467332       -0.00965655760871
C            0.90407650311173        0.19425805824592        0.01148765158418
C            0.09841676901897        1.38076867917923       -0.00506552788048
O            0.47762378897053        2.55857366114372       -0.00259625116629
N           -1.29625704639693        1.08811820083527       -0.03077743747192
C           -2.25393858843719        2.19076765196332       -0.05039673632158
C           -1.82725575496224       -0.16060130879372       -0.04724248937454
O           -3.02643111919231       -0.36039848416903       -0.07150261027831
N           -0.94187800295406       -1.26403904878340       -0.03612228806021
C           -1.46768714447536       -2.59851413571029       -0.05861014050819
H            3.71423560023780        1.24398952555833        1.06688831762583
H            3.99917208465664        1.06449785776425       -0.67644030838751
H            2.69964783252099        2.12430408590541       -0.08507554296836
H            3.57950713385099       -1.63860965650744        0.04520689014057
H           -1.70400513224971        3.12998945945570       -0.02484563111016
H           -2.86603926877245        2.14250781973577       -0.95270130124137
H           -2.92096906583454        2.12493380400754        0.81071614976413
H           -1.12655555971412       -3.13000295294110        0.83185786639966
H           -1.10387180801059       -3.10931516948825       -0.95229602693986
H           -2.55241265950126       -2.53386630311077       -0.07194497745474
H            1.56978919058987       -3.26261059805400       -0.01548140080756
25
 energy: 15.919341734602 xtb: 6.6.1 (8d0f1dd)
C            3.22767220652298        1.18285205207539        0.08737254803695
N            2.29268217426148        0.09193705280696        0.03037887149694
C            2.58454137804617       -1.27312887051280        0.03412563474269
N            1.43284389785410       -2.07560061500143        0.00059314173235
C            0.41468376746366       -1.11673129695035       -0.00978342055773
C            0.90539347394255        0.19455538096050        0.01140719032009
C            0.09902604449695        1.38212820261433       -0.00516215233722
O            0.47697465331851        2.55858413939089       -0.00251178975417
N           -1.29611405418613        1.08957477494418       -0.03080115732061
C           -2.25395619207817        2.19089223846295       -0.05042704616003
C           -1.82852400780482       -0.16036038625814       -0.04724897068597
O           -3.02662627614211       -0.36126880739847       -0.07155379780300
N           -0.94225927869352       -1.26135412062528       -0.03588500307034
C           -1.46705886878784       -2.59814517785454       -0.05854034975165
H            3.71392510571759        1.24363671906163        1.06706661217606
H            3.99973823321300        1.06485002893023       -0.67617450014621
H            2.69943977489313        2.12361969758578       -0.08518298139757
H            3.57790594846185       -1.63740113752656        0.04409704520443
H           -1.70518587594692        3.13062851930958       -0.02480994451400
H           -2.86601072400611        2.14220413883904       -0.95279558731469
H           -2.92098013563971        2.12451206843353        0.81071599569945
H           -1.12533814509003       -3.12855842594359        0.83195812240027
H           -1.10269707224377       -3.10773802279062       -0.95234654154967
H           -2.55172722463104       -2.53509650368829       -0.07189037523506
H            1.57386586499442       -3.27556304669290       -0.01556764806400
25
 energy: 16.746880130703 xtb: 6.6.1 (8d0f1dd)
C            3.22787392670351        1.18324207455976        0.08739553363159
N            2.29356517672851        0.09168466095095        0.02994349027527
C            2.58377088723723       -1.27244950892504        0.03554222612461
N            1.43197017838962       -2.07118280721087        0.00098026873238
C            0.41384921270549       -1.11502428903026       -0.00993259488651
C            0.90626547575896        0.19594469466767        0.01140107555915
C            0.09928354900069        1.38343005911547       -0.00527707986592
O            0.47686485858379        2.55998269019032       -0.00254462997929
N           -1.29521962825718        1.08903649207738       -0.03082239655489
C           -2.25336089498688        2.19002205572517       -0.05041068774924
C           -1.82897865185466       -0.16093852470884       -0.04723688204292
O           -3.02694479653939       -0.36070812180454       -0.07150815703422
N           -0.94250517758499       -1.26127759468711       -0.03578779907557
C           -1.46693345517223       -2.59868064914746       -0.05857380508051
H            3.71385416834408        1.24393740227926        1.06720182635533
H            4.00024031848556        1.06514745518106       -0.67585190527192
H            2.69935776915357        2.12367426678237       -0.08540933007834
H            3.57703783534965       -1.63722875995059        0.04281223655777
H           -1.70516980416121        3.13016712039421       -0.02481420121733
H           -2.86556077389261        2.14146657133599       -0.95274975999302
H           -2.92045017864988        2.12375322516881        0.81075829429357
H           -1.12528960765769       -3.12878968394776        0.83196263613540
H           -1.10259021231132       -3.10786481204480       -0.95245815996688
H           -2.55154046970409       -2.53513970168301       -0.07195307649308
H            1.57282496226770       -3.28317571311607       -0.01563322622814
25
 energy: 17.361592927409 xtb: 6.6.1 (8d0f1dd)
C            3.22784035363806        1.18393743689981        0.08743268937677
N            2.29373441269719        0.09209000701113        0.02980501239535
C            2.58409951743525       -1.27187754275703        0.03720594881465
N            1.43251357960113       -2.06843097652341        0.00130025844320
C            0.41369791344006       -1.11405814516649       -0.01013082246549
C            0.90644707860592        0.19752552188039        0.01139821079241
C            0.09921878027501        1.38429827229241       -0.00536592954610
O            0.47697181430384        2.56150414422383       -0.00265478432704
N           -1.29457821262432        1.08816263568287       -0.03084100437199
C           -2.25298407163572        2.18939377454781       -0.05039121758159
C           -1.82884121279290       -0.16138993386125       -0.04722757844744
O           -3.02714006460591       -0.35965131963678       -0.07143053098991
N           -0.94261196265444       -1.26220052212390       -0.03580968768724
C           -1.46703327603691       -2.59917594944970       -0.05863556369704
H            3.71386015582407        1.24451668434157        1.06729707349984
H            4.00050494682882        1.06547421237901       -0.67561525696835
H            2.69933867873456        2.12416095765025       -0.08556277579918
H            3.57696690587940       -1.63737580264708        0.04133548968066
H           -1.70480354980214        3.12965734758485       -0.02483853691594
H           -2.86528641240638        2.14102107906313       -0.95269234356947
H           -2.92009400101071        2.12333714641479        0.81079964804546
H           -1.12570213105954       -3.12950240595762        0.83191570744539
H           -1.10292875893424       -3.10855756339148       -0.95251972130191
H           -2.55163683386050       -2.53464773800894       -0.07203300435766
H            1.57066101809662       -3.28918271827619       -0.01570738432008
25
 energy: 17.679613114986 xtb: 6.6.1 (8d0f1dd)
C            3.22777494684215        1.18436295569192        0.08747566049055
N            2.29340379845555        0.09265090430661        0.02993853335551
C            2.58473544429842       -1.27153959880481        0.03859745736744
N            1.43354458467789       -2.06794905566111        0.00147802137296
C            0.41397056165088       -1.11398958806353       -0.01031611549002
C            0.90612818114696        0.19832383093861        0.01137110892872
C            0.09898530784378        1.38451298066684       -0.00540754823600
O            0.47711157846267        2.56212878779834       -0.00276302214048
N           -1.29455260007531        1.08785439640533       -0.03085858688780
C           -2.25306984638777        2.18940193902745       -0.05039008960778
C           -1.82847912335004       -0.16139849647322       -0.04723480532917
O           -3.02708659205821       -0.35910985684383       -0.07137514040393
N           -0.94256171192198       -1.26294575846683       -0.03591782968294
C           -1.46715105382051       -2.59924960771649       -0.05867787381190
H            3.71393218469142        1.24486029900198        1.06732685600563
H            4.00049793235264        1.06559067336074       -0.67556270129300
H            2.69945653420516        2.12460725025853       -0.08557028261528
H            3.57734668851022       -1.63737529051382        0.04011060530914
H           -1.70458068955607        3.12951749848119       -0.02486374862285
H           -2.86534220675470        2.14103758250187       -0.95267931978429
H           -2.92012004633031        2.12338614095868        0.81081305475100
H           -1.12606975100870       -3.12992360099464        0.83188386937048
H           -1.10326737062701       -3.10905038331752       -0.95252146771866
H           -2.55179228237689       -2.53423245134954       -0.07207168053270
H            1.56940019906598       -3.29244294902072       -0.01575105864731
25
 energy: 17.827615627138 xtb: 6.6.1 (8d0f1dd)
C            3.22778519540448        1.18450090645452        0.08753137940574
N            2.29292220580858        0.09314869977048        0.03027186938072
C            2.58527517811376       -1.27122297862093        0.04020014277062
N            1.43456149755402       -2.06843943578911        0.00162234428170
C            0.41431832880877       -1.11431433476399       -0.01054798964353
C            0.90567472337657        0.19848721620774        0.01128907329910
C            0.09872423861199        1.38441862624904       -0.00544849394329
O            0.47724381147795        2.56211346771230       -0.00285909464772
N           -1.29485094090690        1.08800908605893       -0.03088977065479
C           -2.25338408279150        2.18973301864882       -0.05040232998881
C           -1.82814948303897       -0.16116514450478       -0.04726335336093
O           -3.02689239074233       -0.35913197422617       -0.07132797498902
N           -0.94241959900795       -1.26331824793339       -0.03610696398625
C           -1.46722314372496       -2.59908523942768       -0.05871217548726
H            3.71406268887991        1.24494274786773        1.06732223959889
H            4.00036134532055        1.06546813688377       -0.67561972718202
H            2.69970519425688        2.12490244881000       -0.08550312515017
H            3.57778520432499       -1.63714543499419        0.03870264630242
H           -1.70454873476956        3.12961875569523       -0.02488473980554
H           -2.86556157900722        2.14127071879185       -0.95269534652750
H           -2.92033545531946        2.12363420321903        0.81080976178024
H           -1.12628401162176       -3.13002324440465        0.83188075620974
H           -1.10349967092133       -3.10929565474892       -0.95250886700941
H           -2.55190505139423       -2.53402780926952       -0.07208253741191
H            1.56884919924395       -3.29404993151408       -0.01574382709373
