25
 energy: -42.546209994734 xtb: 6.6.1 (8d0f1dd)
C            3.22998566351816        1.18245153943848        0.08589813611109
N            2.28511915999738        0.09272223325804        0.03178942187733
C            2.53709304553041       -1.23441899651851        0.03539278224046
N            1.43270069860920       -1.96365837806508        0.00530460457855
C            0.40651776264560       -1.07382427840391       -0.00997972297021
C            0.91221212792778        0.22298312057452        0.01149985407575
C            0.08834860445097        1.40509106582866       -0.00462157314589
O            0.47145240426913        2.56132658456282       -0.00188507095531
N           -1.27169601703191        1.08084236368785       -0.03058990853837
C           -2.23782228775272        2.17100916611833       -0.04974020729383
C           -1.81858640148838       -0.19072368432894       -0.04756827827592
O           -3.01800358997880       -0.35582151228524       -0.07177791323137
N           -0.94027216391496       -1.27008230491361       -0.03689370117219
C           -1.47333588628086       -2.61526607255227       -0.05983786500271
H            3.71316937518201        1.23009381406551        1.06480788629839
H            4.00005383864200        1.05142259053599       -0.67525811984531
H            2.70331938253273        2.12279405745983       -0.08553553760567
H            3.54152861795651       -1.61482025624148        0.03985570677003
H           -1.69016208753323        3.11077583248946       -0.02437777250403
H           -2.84367610817826        2.11241516919816       -0.95346554125308
H           -2.89693301938470        2.09443224281223        0.81427337167259
H           -1.14542063527445       -3.15797246241638        0.82748650421442
H           -1.12184437298669       -3.13652883611347       -0.95106182240239
H           -2.55794504751022       -2.53680466542779       -0.07348629959086
H            1.69716518501927       -3.65353408177787       -0.01935075443698
