  72
        -99.40251382
 N         -1.7299233450        3.1033964809        2.3303141443
 C         -1.7287034812        2.3635144069        1.3248078830
 C         -2.9197720141        2.1302540798        0.4347334958
 C         -3.3028996230        0.6587147071        0.4922866065
 C         -4.2759067912        0.1516268683       -0.3668013434
 C         -4.6225177883       -1.1952589240       -0.3763517900
 O         -5.5698788547       -1.7312802556       -1.1835185180
 C         -6.2973021403       -0.8944282668       -2.0545315730
 C         -3.9308112365       -2.0836740065        0.4812972535
 O         -4.0462887943       -3.4395614562        0.4302531366
 C         -5.3150297016       -4.0380587949        0.6261187554
 C         -2.9955720107       -1.5635516121        1.3621932489
 C         -2.6906441319       -0.2142175457        1.3823234173
 C         -2.4472294510        2.5026253598       -0.9976741134
 C         -1.5702982101        1.4461763041       -1.6949521607
 C         -0.2293802366        1.2776017971       -1.0930629966
 N          0.3607690477        0.1130562024       -0.8673319087
 C          1.7254542042        0.0565220947       -0.3971349703
 C          2.7142495452       -0.2546489934       -1.5376332443
 C          4.1255414988       -0.2172411450       -1.0203830036
 C          4.8509426638        0.9631719516       -1.0376257997
 C          6.1456895109        1.0091610598       -0.5446901767
 C          6.7412298754       -0.1278810135       -0.0176256982
 O          7.9879186714       -0.2018057724        0.4820982072
 C          8.8047730117        0.9464760056        0.4682585842
 C          6.0021372955       -1.3436708846        0.0109713425
 O          6.6564745739       -2.3968780874        0.5373669399
 C          6.0224323419       -3.6528975376        0.5844294021
 C          4.7085799208       -1.3645175102       -0.4871462011
 C         -0.2855263133       -1.1451785638       -1.1590945788
 C         -4.1562261453        2.9925872926        0.8211371070
 C         -4.6856864930        2.6167442417        2.2028322113
 C         -3.8863491576        4.4938388707        0.7620611392
 H         -4.7716552157        0.8222498601       -1.0494945204
 H         -6.8372762401       -0.1171346324       -1.5060863293
 H         -7.0136362327       -1.5436369688       -2.5539948127
 H         -5.6464863426       -0.4342214100       -2.8038961050
 H         -6.0820223907       -3.5797134249        0.0036132394
 H         -5.6085731975       -3.9712344196        1.6810756892
 H         -5.1902257285       -5.0831853889        0.3526624135
 H         -2.5037065438       -2.2481524099        2.0349113909
 H         -1.9811588186        0.1494330279        2.1074337872
 H         -3.3251916268        2.6656056624       -1.6224715205
 H         -1.8998410806        3.4447317006       -0.9467074420
 H         -2.1061705274        0.4998630561       -1.7368317401
 H         -1.4262383583        1.7956512093       -2.7259393182
 H         -0.8337023542        1.8298766210        0.9518726175
 H          0.3682920468        2.1637005281       -0.9372799020
 H          1.8035615319       -0.7153683691        0.3730825020
 H          1.9951651237        1.0149657809        0.0511676679
 H          2.5881196395        0.4919590926       -2.3235786153
 H          2.4945992223       -1.2371677523       -1.9568735639
 H          4.4142775326        1.8596178243       -1.4509837630
 H          6.6875828959        1.9398506390       -0.5806761100
 H          8.3755016280        1.7509334144        1.0731694674
 H          8.9733820436        1.3052708805       -0.5514497942
 H          9.7528001933        0.6353703472        0.9027383549
 H          6.7497697003       -4.3302721408        1.0276946965
 H          5.1252004869       -3.6265143795        1.2110021152
 H          5.7608178557       -4.0082471088       -0.4170041627
 H          4.1442976220       -2.2839593042       -0.4788339632
 H         -0.5157785799       -1.2289134358       -2.2227314958
 H         -1.2113392896       -1.2466856749       -0.5882283954
 H          0.3756066408       -1.9618568586       -0.8834571181
 H         -4.9374460448        2.7626262246        0.0873517712
 H         -3.9567379031        2.8763160580        2.9636774335
 H         -4.8979282763        1.5521065250        2.2659918645
 H         -5.6040024744        3.1624132939        2.4027425381
 H         -3.0931509264        4.7616371215        1.4530869107
 H         -3.6159946394        4.8202230372       -0.2386774326
 H         -4.7861794489        5.0286524206        1.0545169574
 H         -0.8607096782        3.2117561260        2.8432666100
