25
 energy: 0.000000000000 xtb: 6.6.1 (8d0f1dd)
C            3.23720132972391        1.16630909158653        0.08434468864950
N            2.29877796055224        0.07527476373246        0.03981602671198
C            2.58028186251803       -1.21425391179017        0.03006175752192
N            1.43813944744728       -1.93419254010258        0.00098261751768
C            0.39035684826767       -1.05887462812143       -0.00790371763344
C            0.93510047688824        0.21347817468824        0.01709077332874
C            0.09450143016486        1.40504290868848       -0.00410946993748
O            0.49712746915594        2.54126690785742       -0.00342325656480
N           -1.25076628431515        1.06271869620815       -0.03085477937476
C           -2.21907191394203        2.15522079838987       -0.05001256521996
C           -1.81739470187490       -0.20012724136556       -0.04692818139228
O           -2.99983858926755       -0.37846413507442       -0.07008877579474
N           -0.92618577614240       -1.30210203518959       -0.03682761236648
C           -1.46982251276835       -2.64643077634382       -0.06029819901142
H            3.71247229913541        1.21471443890471        1.06488839270555
H            4.00791460421487        1.03430799217987       -0.67357688121503
H            2.69909982127087        2.09770098766290       -0.09130154035862
H            3.56654087521359       -1.63682977417947        0.04233139674524
H           -1.67107945562430        3.09322822573871       -0.02552706696334
H           -2.82428927394145        2.09428605349656       -0.95318074103337
H           -2.87644002486466        2.07745706351925        0.81450059976605
H           -1.17061985538665       -3.19584861009707        0.83242224714061
H           -1.14560246782873       -3.17511580834413       -0.95688266944647
H           -2.55549768731684       -2.55659960601237       -0.07459039105944
H            1.38130842369251       -2.94313824728853       -0.01389874052104
25
 energy: -5.637164351855 xtb: 6.6.1 (8d0f1dd)
C            3.23776803366762        1.17211711983982        0.08635988793982
N            2.30211114113525        0.09535969169109        0.03443301254456
C            2.60120703798187       -1.25052219779957        0.03199927250348
N            1.42659474355664       -1.97158779619571        0.00077159532148
C            0.40462141339070       -1.08005003894409       -0.00858104204609
C            0.91655795314071        0.21330472701867        0.01403556137043
C            0.11388744897965        1.38096849234243       -0.00546931167131
O            0.49314488257545        2.55711794405341       -0.00452389277555
N           -1.27075623657275        1.05400677068203       -0.03121723443651
C           -2.22346473804961        2.15327231401175       -0.04959419458899
C           -1.81615207241562       -0.19287292635941       -0.04716846032009
O           -3.01502893257035       -0.38137201237622       -0.07018897427266
N           -0.93818683689513       -1.29840481787141       -0.03706530417591
C           -1.47238875498088       -2.63823517328180       -0.06033183712087
H            3.71721465393890        1.22147117369892        1.06813099091190
H            4.00931108894071        1.03978030576158       -0.67445993020975
H            2.69944063002603        2.10254224994359       -0.09026061880409
H            3.58165880062553       -1.65255488063077        0.04427069303452
H           -1.66833288361391        3.08928209059727       -0.02531603582844
H           -2.82967257519616        2.09826347474662       -0.95346216522552
H           -2.88116571953123        2.08141261427058        0.81605658977750
H           -1.16464436185178       -3.18838999212481        0.83195875837341
H           -1.13963564855916       -3.16789056835891       -0.95619417377495
H           -2.55729608925032       -2.55155801844734       -0.07476697634954
H            1.41771232627776       -2.99797050801118       -0.01366545029694
25
 energy: -3.707388023511 xtb: 6.6.1 (8d0f1dd)
C            3.23510575957439        1.17223572028037        0.08669877753936
N            2.30068442762204        0.09000003442879        0.03277527751503
C            2.60160158034493       -1.26094984159167        0.03119746191243
N            1.43373316337742       -2.00352960723784        0.00031315425483
C            0.41045496924745       -1.09874228209678       -0.00977756446162
C            0.91403190148838        0.20105807620729        0.01213932543524
C            0.11292035314963        1.37494480958092       -0.00565833958157
O            0.49254116862631        2.55313515531087       -0.00393070749425
N           -1.27363430914580        1.05653376695078       -0.03107450321390
C           -2.22753400999828        2.15564246457866       -0.04953649838160
C           -1.81685508001689       -0.19022517878602       -0.04717353434772
O           -3.01610345964873       -0.37940209292006       -0.06990795996917
N           -0.93755716673749       -1.29608008454761       -0.03724051718339
C           -1.47325567307647       -2.63386575036144       -0.06029173751335
H            3.71561405797681        1.22459692790645        1.06839457752370
H            4.00849534748194        1.04350841376879       -0.67337237675307
H            2.69884146096969        2.10483006711052       -0.08990543744703
H            3.58818611108804       -1.64607046810386        0.04429185421866
H           -1.67450219079016        3.09287256098380       -0.02530849717595
H           -2.83423236905639        2.10041092497261       -0.95320936971975
H           -2.88599618625183        2.08367128427094        0.81567421472304
H           -1.16115855433601       -3.18184977007961        0.83179686197851
H           -1.13663859875210       -3.16135940983713       -0.95595935482741
H           -2.55765512412107       -2.54711281819413       -0.07445874639434
H            1.46953819115200       -3.05223195920493       -0.01126760006596
25
 energy: -0.380034314358 xtb: 6.6.1 (8d0f1dd)
C            3.23242524848036        1.17171712962738        0.08587398886528
N            2.29676129416331        0.08616090023157        0.03143653727842
C            2.59968212949211       -1.26896367473430        0.03377212651617
N            1.44089841314653       -2.03337377459241        0.00074636394884
C            0.41439201292202       -1.11634064798774       -0.00893246642305
C            0.90914879994961        0.18996000275199        0.01269194794412
C            0.10921132315177        1.37188525917134       -0.00385079895590
O            0.48844590787074        2.55002910207140       -0.00210150012473
N           -1.27840848099647        1.05904058641943       -0.03029646258802
C           -2.23097091056264        2.15995627930915       -0.05000583182449
C           -1.81924614507763       -0.18831196006425       -0.04687805959366
O           -3.01892196448439       -0.37831366540699       -0.07093670670845
N           -0.93844432395349       -1.29442386684961       -0.03637510488371
C           -1.47467429648920       -2.63104513894255       -0.06035230973003
H            3.71761822980676        1.22420076963930        1.06592103662272
H            4.00485259582185        1.04309716969553       -0.67586210510600
H            2.70112410067591        2.10841335189463       -0.08889614886040
H            3.59002798169928       -1.63824528958709        0.04236379955162
H           -1.67623385290944        3.09630934808964       -0.02515352354730
H           -2.83701644887204        2.10711637614538       -0.95434009062757
H           -2.89101360069050        2.09052499388200        0.81428036626055
H           -1.15846581517982       -3.17733209138888        0.83134024592940
H           -1.13301451475009       -3.15592277374352       -0.95565976971871
H           -2.55883057298496       -2.54669975679053       -0.07509252960168
H            1.52719149116729       -3.10662166708886       -0.01313983370531
25
 energy: 4.518147949212 xtb: 6.6.1 (8d0f1dd)
C            3.22872954589898        1.17132652783289        0.08683507959160
N            2.29539466337894        0.08090126180073        0.02782140882539
C            2.59357745186804       -1.27895882316246        0.03801274154405
N            1.44369534101829       -2.06436644418886        0.00000333777774
C            0.41772752771638       -1.13129453567941       -0.01040945520880
C            0.90699820845993        0.18206946947304        0.01109320414104
C            0.10740197192272        1.37013456270702       -0.00440177247057
O            0.48518067993889        2.54774796071112       -0.00248237950009
N           -1.28196798883772        1.06333371259784       -0.03062215456415
C           -2.23452247409698        2.16472315255136       -0.05006026173365
C           -1.82090014479316       -0.18381858367430       -0.04706105872910
O           -3.02108481646436       -0.37366586792303       -0.07072226603166
N           -0.93905596975433       -1.29044200356426       -0.03660796051025
C           -1.47384170224484       -2.62667248320987       -0.05964594671971
H            3.71428157684849        1.22610482802994        1.06713990573635
H            4.00271558262518        1.04614838411111       -0.67448062731841
H            2.69891804452775        2.11002391853430       -0.08706055215681
H            3.58731062120435       -1.63564155662742        0.03878220589024
H           -1.68145547272225        3.10218688623650       -0.02554331095055
H           -2.84144092685505        2.11168277734844       -0.95383185195201
H           -2.89455193942638        2.09516766645905        0.81423664569733
H           -1.15129994719536       -3.16999792621341        0.83179380653411
H           -1.12708047037682       -3.14912540227802       -0.95458417673489
H           -2.55780562905013       -2.54599621524658       -0.07359674549833
H            1.56320342090948       -3.17069211809192       -0.01504792115334
25
 energy: 21.436179014747 xtb: 6.6.1 (8d0f1dd)
C            3.22998506182953        1.18245141377595        0.08589677569327
N            2.28511903823157        0.09272200372607        0.03178939707526
C            2.53709324326323       -1.23441908495353        0.03539301477201
N            1.43270104639003       -1.96365853684405        0.00530505959561
C            0.40651776096180       -1.07382494595018       -0.00997853517442
C            0.91221206113554        0.22298257337125        0.01149818260243
C            0.08834875114694        1.40509047798781       -0.00462341294629
O            0.47145278441262        2.56132596866269       -0.00188510201132
N           -1.27169588857140        1.08084209336678       -0.03059090327430
C           -2.23782192415806        2.17100913018734       -0.04973907271337
C           -1.81858633105327       -0.19072389688550       -0.04756989239621
O           -3.01800353069732       -0.35582159383765       -0.07177950512019
N           -0.94027221305061       -1.27008282448649       -0.03689501517849
C           -1.47333621721495       -2.61526645369072       -0.05983952381259
H            3.71317053702460        1.23009193118268        1.06480587233322
H            4.00005239050624        1.05142295543709       -0.67526063726560
H            2.70331711197010        2.12279357777456       -0.08553428588869
H            3.54152874051922       -1.61482054522179        0.03986045860557
H           -1.69016127806360        3.11077553310601       -0.02437572799054
H           -2.84367619855252        2.11241588615999       -0.95346413969020
H           -2.89693192643013        2.09443123157050        0.81427490361717
H           -1.14542162826402       -3.15797263477883        0.82748525254072
H           -1.12184434632705       -3.13652949733776       -0.95106316043742
H           -2.55794540840206       -2.53680554818236       -0.07348866324807
H            1.69716734754126       -3.65353359961431       -0.01933214013876
25
 energy: 19.731837813214 xtb: 6.6.1 (8d0f1dd)
C            3.22928441188681        1.18406957474689        0.08472977692229
N            2.28081380213775        0.09443886073307        0.03224807250871
C            2.52474473042001       -1.23583897137615        0.03778280205175
N            1.42465002484221       -1.97480135563679        0.00646688153700
C            0.40384833555874       -1.06971470899563       -0.00948862739589
C            0.90923713140446        0.22820917173384        0.01219516133905
C            0.08407705678500        1.41119501728700       -0.00354529750605
O            0.46478841797160        2.56692289328541       -0.00011707596840
N           -1.27564471448065        1.08700051876761       -0.02984925106824
C           -2.24202272253290        2.17701199263616       -0.05000638316713
C           -1.82165204691102       -0.18553008953672       -0.04747681947809
O           -3.02117374990946       -0.35264571573784       -0.07140644526088
N           -0.94247078957026       -1.26274370968368       -0.03656901802950
C           -1.47129244313425       -2.60959127712078       -0.05963501366010
H            3.71166852795548        1.23404336543890        1.06395586847107
H            3.99915476689424        1.05307242922396       -0.67635848464584
H            2.70502687161694        2.12598858988634       -0.08883578076592
H            3.53165367124924       -1.61094564007067        0.04306914768025
H           -1.69518471413158        3.11728676074544       -0.02475135887309
H           -2.84729971258413        2.11823765284573       -0.95393383963419
H           -2.90243356792628        2.10131958028185        0.81294615899763
H           -1.13957299648694       -3.14989866989047        0.82780062938441
H           -1.11544237828191       -3.12977956609873       -0.94990246484386
H           -2.55603336646827       -2.53497289972186       -0.07384321232723
H            1.74184958081119       -3.74482445245708       -0.02740806033881
25
 energy: 18.590470862352 xtb: 6.6.1 (8d0f1dd)
C            3.22882031401132        1.18792580789580        0.08529836104141
N            2.27594209246921        0.09987938671296        0.03372430428613
C            2.51346373025660       -1.23228776826473        0.03916062833460
N            1.41349541260602       -1.97238981864000        0.00818343181822
C            0.39913330050605       -1.06037310913501       -0.00918069789881
C            0.90579860129007        0.23733312008740        0.01194982826154
C            0.07990354885027        1.41889617140512       -0.00414182097987
O            0.45700574537504        2.57535937586901       -0.00080387202720
N           -1.27969388491384        1.09328763322345       -0.02992200199107
C           -2.24620552507647        2.18256610562244       -0.04996402751533
C           -1.82435451780225       -0.17928702885737       -0.04725260821765
O           -3.02360087597338       -0.34689568452273       -0.07134643091954
N           -0.94593785005283       -1.25494427916552       -0.03642218620166
C           -1.47108413548628       -2.60296807705604       -0.05919444620481
H            3.71102808566673        1.23839290292739        1.06444597404895
H            3.99836186183433        1.05576674797761       -0.67549896092584
H            2.71022557179919        2.13303099848546       -0.08925629884769
H            3.52135515734411       -1.60521665629762        0.04284987466808
H           -1.69935140412495        3.12282198793533       -0.02488327024256
H           -2.85176212707396        2.12379146569416       -0.95363515465927
H           -2.90643354272359        2.10699515096870        0.81306089549488
H           -1.13649360993899       -3.14220598288352        0.82785663167371
H           -1.11363875079550       -3.12163221155161       -0.94978013008340
H           -2.55567156877980       -2.53075526152162       -0.07220141874363
H            1.79232564048652       -3.84246115564667       -0.02836125693249
25
 energy: 18.129309212405 xtb: 6.6.1 (8d0f1dd)
C            3.22766465664824        1.19205025419893        0.08614732925113
N            2.27101739280854        0.10712391246241        0.03497241765899
C            2.50293043950233       -1.22600085913282        0.03882394207395
N            1.40266365746995       -1.96489266331069        0.01150177166257
C            0.39439015317907       -1.04813264316613       -0.00845599953721
C            0.90231446684730        0.24877510099186        0.01136395642355
C            0.07522410629840        1.42814809659782       -0.00578451337324
O            0.44877637692934        2.58544694813634       -0.00306512220451
N           -1.28357118956500        1.09994530939799       -0.03047496083097
C           -2.25011903491300        2.18815119814371       -0.04967199429141
C           -1.82759539824040       -0.17296395371809       -0.04743891864043
O           -3.02664738803729       -0.34101670651711       -0.07154021536248
N           -0.94930563180835       -1.24652959239468       -0.03624042910259
C           -1.46761141284072       -2.59709559843333       -0.05903032958282
H            3.70901554999131        1.23926398719066        1.06567226515142
H            3.99662145716087        1.05832086464997       -0.67513976204752
H            2.71442501398642        2.13980038885290       -0.08756746320177
H            3.51093477990013       -1.59890472480465        0.04060194155704
H           -1.70169711860949        3.12740765288172       -0.02430094438438
H           -2.85588878065115        2.12968067653532       -0.95316499802142
H           -2.90967711477402        2.11215333639550        0.81378697596923
H           -1.12951905054798       -3.13476492088159        0.82768341232998
H           -1.10680066745747       -3.11311253996072       -0.94980976557877
H           -2.55220038703020       -2.53330928120187       -0.07208163955217
H            1.83363021578338       -3.94934715936114       -0.02712244242739
25
 energy: 18.158834690538 xtb: 6.6.1 (8d0f1dd)
C            3.22772888924897        1.19736459281631        0.08605145210156
N            2.26800414847712        0.11545832777880        0.03632146914603
C            2.49398394923691       -1.21867656082387        0.03962688937457
N            1.39286300958586       -1.95422135847805        0.01205070862796
C            0.39008329000146       -1.03450780956758       -0.00700075217408
C            0.90007642719704        0.26080109851276        0.01206598497060
C            0.07216317478779        1.43800731170588       -0.00569461486660
O            0.44511376777401        2.59555990831539       -0.00280995616490
N           -1.28643764567645        1.10729578204054       -0.03024790376073
C           -2.25375365407498        2.19396437490540       -0.05021395482538
C           -1.83071977993140       -0.16619354390002       -0.04701412123418
O           -3.02958046668288       -0.33414953553924       -0.07151534095156
N           -0.95236853184209       -1.23759195770999       -0.03543726933837
C           -1.46496732457041       -2.59040428260337       -0.05820335369107
H            3.70871822410462        1.24429494467271        1.06575426634807
H            3.99615560951507        1.06216838201918       -0.67554623956103
H            2.71750675140782        2.14619097087169       -0.08786518182897
H            3.50039029884434       -1.59623282965944        0.04129403583414
H           -1.70539326280551        3.13306390097263       -0.02461121633782
H           -2.85894380617535        2.13481987652491       -0.95402522752372
H           -2.91391281818920        2.11759080667170        0.81272995036742
H           -1.12553863565542       -3.12665322814251        0.82885708448899
H           -1.10144941114747       -3.10524032109525       -0.94854454336517
H           -2.54940825734500       -2.53224003011390       -0.07221888912468
H            1.88221714219114       -4.06625617363301       -0.03191697000376
25
 energy: 18.443289665362 xtb: 6.6.1 (8d0f1dd)
C            3.22945864011933        1.20266711347451        0.08536021348262
N            2.26576177061068        0.12554866117395        0.03691139714605
C            2.48624005150152       -1.20906071408687        0.03737893923992
N            1.38464978938859       -1.94050360140724        0.01126761855210
C            0.38611042001298       -1.01908676305140       -0.00577915342914
C            0.89828339923424        0.27448753852864        0.01288409155554
C            0.06928065450128        1.44946207629775       -0.00553107685145
O            0.44209481629639        2.60729077383797       -0.00209795334688
N           -1.28944754804754        1.11572735586612       -0.03014903336046
C           -2.25865309399351        2.19988184964212       -0.05048501755168
C           -1.83399273391444       -0.15851090369121       -0.04700185398086
O           -3.03275999760391       -0.32618068408279       -0.07176124247635
N           -0.95518892828163       -1.22769706576118       -0.03517558580519
C           -1.46206995737105       -2.58321991006112       -0.05818489730598
H            3.70962683565966        1.24607992345785        1.06528832289422
H            3.99768871887580        1.06526740792814       -0.67624376630389
H            2.72061627837467        2.15178789938817       -0.08900065543422
H            3.48999769976893       -1.59425500561793        0.04135418610026
H           -1.71201732840015        3.13963715774831       -0.02486034162999
H           -2.86368116444573        2.13928328816258       -0.95425767708891
H           -2.91894275903155        2.12210555030514        0.81217538745064
H           -1.11980841578361       -3.11816177539354        0.82854783855260
H           -1.09596671479521       -3.09713777793324       -0.94797170560691
H           -2.54663569902782       -2.53237200676368       -0.07222542324759
H            1.92782480648741       -4.19488965249309       -0.03314475142598
25
 energy: 18.803907197388 xtb: 6.6.1 (8d0f1dd)
C            3.23144392215102        1.20850185661143        0.08551930808049
N            2.26393317270922        0.13665759274828        0.03728474976856
C            2.48020250286175       -1.19770926459661        0.03418009539480
N            1.37824816226210       -1.92482255141508        0.00919310931745
C            0.38285404822228       -1.00309248935703       -0.00535299263195
C            0.89686582637807        0.28866082622555        0.01332404871425
C            0.06643135053454        1.46104559243734       -0.00544883121822
O            0.43848283784438        2.61928399046051       -0.00211862022098
N           -1.29196012524342        1.12398526531662       -0.03020736474349
C           -2.26352511326117        2.20517404133912       -0.05058039994759
C           -1.83675254427644       -0.15080196746584       -0.04699044031807
O           -3.03545271891202       -0.31888752908412       -0.07187260236846
N           -0.95716832326677       -1.21724218651442       -0.03492304080304
C           -1.46002051644530       -2.57493042603555       -0.05806609863759
H            3.71156181189072        1.24781928213339        1.06550280503896
H            3.99849151589671        1.06599408833024       -0.67585620260137
H            2.72532242607268        2.15861748228431       -0.08999679466611
H            3.48034916854434       -1.59177346756232        0.04167253189247
H           -1.71863468443423        3.14551345934061       -0.02499625856977
H           -2.86867653124005        2.14297134477729       -0.95417344370405
H           -2.92382349506059        2.12571000425412        0.81194472903180
H           -1.11566042834743       -3.10911276540852        0.82844073108535
H           -1.09202538323573       -3.08815538970453       -0.94763630568745
H           -2.54485716380242       -2.52711628931364       -0.07208582906735
H            1.96745464593146       -4.32742066805787       -0.03349612464822
25
 energy: 19.141322558193 xtb: 6.6.1 (8d0f1dd)
C            3.23297337580635        1.21492528763621        0.08581851109566
N            2.26195121279617        0.14833085818595        0.03825011613449
C            2.47544415601849       -1.18498361102281        0.03272904743220
N            1.37264761815471       -1.90802250013756        0.00714383309448
C            0.37952175807565       -0.98711067355465       -0.00560581329401
C            0.89527516687283        0.30281205318284        0.01408314619526
C            0.06336772683662        1.47256693232018       -0.00455996766318
O            0.43495340233921        2.63114614228832       -0.00153827770985
N           -1.29416635717732        1.13280409302779       -0.03012569046556
C           -2.26753533530398        2.21148028516523       -0.05065351014855
C           -1.83951675658674       -0.14280632726686       -0.04701670455037
O           -3.03819043916978       -0.31120057284176       -0.07189517562625
N           -0.95918237847679       -1.20682315440858       -0.03493221263441
C           -1.45741017403747       -2.56685686175628       -0.05799484748144
H            3.71416392482515        1.25236056825518        1.06538022628057
H            3.99787061427234        1.06402661679924       -0.67593101560058
H            2.72923692482647        2.16604785498559       -0.08993036720272
H            3.47096610175838       -1.58912161942905        0.04454752709093
H           -1.72326346533761        3.15193481272696       -0.02500166908846
H           -2.87278095046216        2.14784637416928       -0.95427393005427
H           -2.92823641872050        2.13046684044272        0.81163281730254
H           -1.11017166436976       -3.10043061704551        0.82772482265810
H           -1.08749794208429       -3.07957899596502       -0.94704902823038
H           -2.54267368988598       -2.52352979316291       -0.07168649461656
H            1.99927721679556       -4.46435786152978       -0.03311757615114
25
 energy: 19.419860756692 xtb: 6.6.1 (8d0f1dd)
C            3.23413082461414        1.22217384215224        0.08603821480496
N            2.26006937663912        0.15984170212382        0.03851460019034
C            2.47157694857139       -1.17218031682665        0.03176366095699
N            1.36740513493784       -1.89116497157848        0.00614445052719
C            0.37614810513777       -0.97189653250864       -0.00554513196104
C            0.89359184101176        0.31636298679849        0.01475310776989
C            0.06034138974801        1.48334051308560       -0.00387207287402
O            0.43142262671640        2.64239545920626       -0.00095627131365
N           -1.29584202994813        1.14002127779060       -0.03005845524818
C           -2.27068222254287        2.21738653621869       -0.05076958044180
C           -1.84151500006570       -0.13640246227595       -0.04690388067196
O           -3.04029992581476       -0.30402198683515       -0.07181252396601
N           -0.96083179022257       -1.19888103660246       -0.03453514595799
C           -1.45461066028870       -2.56023837044086       -0.05780595826050
H            3.71566020828340        1.25716761176442        1.06565677168276
H            3.99842784514939        1.06681550046558       -0.67604205421018
H            2.73326543599508        2.17481842058237       -0.08904919015677
H            3.46123689633260       -1.58741648063948        0.04669007277974
H           -1.72629307493838        3.15759132189472       -0.02517248993102
H           -2.87626728733127        2.15285548903904       -0.95446817381752
H           -2.93190285717681        2.13558865181326        0.81147502391445
H           -1.10528828406679       -3.09287930099332        0.82731905748616
H           -1.08310367229843       -3.07210499666726       -0.94642008106408
H           -2.54024726604748       -2.51900172242821       -0.07163838546581
H            2.02569737422453       -4.60265272944479       -0.03247402588291
25
 energy: 19.621973094848 xtb: 6.6.1 (8d0f1dd)
C            3.23626153260373        1.22920952373960        0.08604290795385
N            2.25965362143726        0.17123363080167        0.03880877272266
C            2.47178982410920       -1.15922267965348        0.03133759108230
N            1.36552628904635       -1.87450598029532        0.00509370555168
C            0.37451399688033       -0.95792287577795       -0.00531705656130
C            0.89337820592695        0.32902779547182        0.01545010467174
C            0.05850164065803        1.49354889831519       -0.00407043745272
O            0.42889418729979        2.65297472875500       -0.00161832903056
N           -1.29543570813613        1.14474555015588       -0.03055372425802
C           -2.27304077702047        2.22150480749356       -0.05096243549561
C           -1.84119122380944       -0.13390109188051       -0.04672881422627
O           -3.04067155880534       -0.29785570342542       -0.07148469595405
N           -0.96138969837661       -1.19440674064021       -0.03356822649686
C           -1.45177973792670       -2.55603009768144       -0.05763625226531
H            3.71809413993147        1.26179492707422        1.06563860641609
H            4.00006116754547        1.07120988890637       -0.67596353586745
H            2.73602945394547        2.18145900695458       -0.08970048712867
H            3.45651506272666       -1.58267146294770        0.04581959890046
H           -1.73165397630131        3.16338167514540       -0.02515063884931
H           -2.87952475147527        2.15709613125541       -0.95436611208084
H           -2.93497798359232        2.13943381694476        0.81104249382506
H           -1.09937725627435       -3.08537464761192        0.82699693462109
H           -1.07809095068838       -3.06410690012969       -0.94629897334053
H           -2.53801237815641       -2.51680396906129       -0.07115295095413
H            2.02944423550819       -4.74383947683360       -0.03269466837348
25
 energy: 19.771620645324 xtb: 6.6.1 (8d0f1dd)
C            3.23963401097907        1.23654484306042        0.08680639598849
N            2.26142431031408        0.18295382573269        0.03925698609634
C            2.47896051432313       -1.14576268451614        0.03103260200147
N            1.37259723369909       -1.85987848432014        0.00301235453183
C            0.37843150254834       -0.94696997646438       -0.00571694519182
C            0.89522281511216        0.34044350903048        0.01639138157537
C            0.05760522910606        1.50272175208898       -0.00374376328914
O            0.42495635870861        2.66329715991559       -0.00281514320017
N           -1.29268452793774        1.14709997671012       -0.03049327147029
C           -2.27263335027353        2.22180029960905       -0.05109694830926
C           -1.83720077310939       -0.13307789473620       -0.04669616009578
O           -3.03625071653028       -0.30008004817613       -0.07091477104487
N           -0.95644326596226       -1.19281560412162       -0.03509620485819
C           -1.44718469475758       -2.55359877614284       -0.05766559303084
H            3.72097322971063        1.26571791329438        1.06658910078366
H            4.00235310187047        1.07440889818811       -0.67555720196866
H            2.73963444530091        2.18816478473466       -0.08927327703269
H            3.46342697098956       -1.57113390613136        0.04397071343431
H           -1.73547756427210        3.16684608677733       -0.02567236138639
H           -2.87827456220172        2.15478075131896       -0.95454583118808
H           -2.93318202588173        2.13686247945016        0.81122925197399
H           -1.09577443746516       -3.08440968144695        0.82640962336016
H           -1.07380085992586       -3.06346207665239       -0.94508788413592
H           -2.53401633116990       -2.51461561795381       -0.07131743060789
H            2.01138125676072       -4.88040265352329       -0.03275599298746
25
 energy: 19.763255126849 xtb: 6.6.1 (8d0f1dd)
C            3.24053218332940        1.24038464122308        0.08710572849633
N            2.26350769631421        0.18708847825261        0.03896065977385
C            2.48918364242585       -1.13955053209383        0.03119321320572
N            1.38951605391653       -1.86127013548421        0.00328071448310
C            0.38719237461051       -0.95552898281009       -0.00571015753740
C            0.89682956826140        0.33697965092647        0.01654027117265
C            0.05887911951464        1.49965553164821       -0.00422659996308
O            0.42688894462720        2.66012453561772       -0.00301606807356
N           -1.29157173281727        1.14632042417043       -0.03068804428203
C           -2.27336334935767        2.22097262546129       -0.05103411572270
C           -1.83150565956435       -0.13530800979347       -0.04663464674566
O           -3.03028157591289       -0.30557165250767       -0.07091137895161
N           -0.94919968367777       -1.19732954013987       -0.03477938484747
C           -1.44586859525265       -2.55634611151722       -0.05756322823899
H            3.72059929046717        1.26648476599685        1.06752604681996
H            4.00348660579563        1.07488300340344       -0.67406794244267
H            2.74245447968496        2.19271314992988       -0.08951834130824
H            3.47347538011118       -1.56429323699475        0.04401655758942
H           -1.73743793265093        3.16717678913593       -0.02613914812608
H           -2.87986914576327        2.15241784419970       -0.95402460949754
H           -2.93389507778554        2.13503063690847        0.81151713186854
H           -1.09752239840600       -3.09024835236593        0.82617319847716
H           -1.07509609722669       -3.06929402832856       -0.94465939346067
H           -2.53319173394730       -2.51543313378844       -0.07129430281722
H            1.89847194827612       -4.90102957230608       -0.03501224767725
