25
 energy: 37.450748775344 xtb: 6.6.1 (8d0f1dd)
C            3.54293007180989        1.05288813855064        0.08049851746312
N            2.42196590854831        0.15068273471802       -0.00193527742912
C            2.61588334034907       -1.21766928684568       -0.04399326497477
N            1.39568591130559       -1.83614905017738       -0.08341608263941
C            0.38708997081924       -0.91875383313515       -0.04238930297041
C            0.98094493906914        0.36334193308308        0.01941850181845
C            0.11512271686171        1.44746663079167        0.06284991614500
O            0.19760287898717        2.64418014996956        0.10603181800244
N           -1.72070254793087        1.04410290289284       -0.01622633765841
C           -2.56212261902187        2.20599525176605       -0.04648768280954
C           -2.21445133008195       -0.16781987321904       -0.04588579058024
O           -3.28162554827048       -0.71010935452754       -0.08639701978785
N           -0.95388483128137       -1.16254914057186       -0.02778609224426
C           -1.33269502178835       -2.57515750820177       -0.04714933040256
H            3.87823842298057        1.28013694574651        1.10370775950117
H            4.45349077960833        0.58164442430351       -0.38992997418612
H            3.35568333563737        1.99893052294222       -0.41698630604858
H            3.54755740873122       -1.76218910344762       -0.11082493131621
H           -1.89420853864023        3.06102424738662       -0.00274562133685
H           -3.15546158427726        2.27495361727842       -0.95868061995847
H           -3.24604922953853        2.25717090987445        0.80089925759054
H           -1.00638439051534       -3.11302237162212        0.84974856657299
H           -0.96814234798304       -3.10632397367537       -0.93325628282531
H           -2.40955575607137       -2.59507207510766       -0.07663952033323
H            1.28921654064496       -2.84334324383248       -0.09549632960386
