25
 energy: 61.063249789670 xtb: 6.6.1 (8d0f1dd)
C            3.87194563060742        0.88203456852545        0.08531195273242
N            2.80061082044178       -0.05262578084324        0.00627783991178
C            2.96919802379271       -1.39855348050759       -0.08257934400919
N            1.74610381250229       -1.98596029781687       -0.08844088823671
C            0.72262242864707       -1.03769387417652        0.00069708160763
C            1.41925471137793        0.25453946782859        0.05348289311020
C            0.88953494927281        1.46987958577216        0.14276984144384
O            0.37793711581971        2.53945517059060        0.19765542189094
N           -2.96789661715368        1.06950340091885       -0.05867559943566
C           -3.16774726731906        2.47335310566758       -0.04041973897794
C           -3.60318196858162        0.06532007030822       -0.07042683501762
O           -4.08773711455890       -0.99288416397324       -0.08315049350249
N           -0.54153248642504       -1.19513648208878        0.01598604654552
C           -1.12030855189483       -2.51566465687823       -0.03203552290545
H            3.88117052107117        1.43462211921115        1.03070386472970
H            4.79419929318988        0.29349395991923        0.11675748452488
H            3.93192976281200        1.52291689218435       -0.80295118274001
H            3.91088066889637       -1.90199156837761       -0.11102590339548
H           -2.21394312507138        2.98650283275706        0.02110076754811
H           -3.67667479810090        2.75634006084567       -0.96407873553723
H           -3.78692493509925        2.73982286503951        0.82207369882919
H           -0.84653666529614       -3.07068155395886        0.87217755123147
H           -0.76161705098921       -3.06957082372607       -0.90647183282608
H           -2.20111843144090       -2.40562112502965       -0.07656709033123
H            1.60861565200344       -2.98128412184112       -0.13549841228949
