25
 energy: 72.532632102390 xtb: 6.6.1 (8d0f1dd)
C            3.64284267233933        0.96885670801530        0.07160882989581
N            2.50462581345156        0.09507295970276       -0.00475328709220
C            2.67441055483074       -1.24706836771577       -0.12147815421045
N            1.46953122193823       -1.88208825900802       -0.09290941598480
C            0.44513276942925       -0.96049107298507       -0.02981802755690
C            1.09914825246099        0.33904919356275        0.05877934852520
C            0.39668643817393        1.47602061487615        0.03532976714203
O            0.16612731885587        2.62334634329378        0.23063242095309
N           -2.06982295527703        1.03485970459592       -0.05447561273591
C           -2.74393935249072        2.28008093163079       -0.05580112347435
C           -2.66038412978324       -0.02642275013254       -0.04927032896303
O           -3.46084232542568       -0.87635241247474       -0.06994785441409
N           -0.83033788866754       -1.18127794507353       -0.01268991322431
C           -1.25812432329441       -2.56685606643523       -0.03771105499257
H            3.84943702269633        1.38512299138201        1.04656630899810
H            4.52624467672769        0.34138101531315       -0.22440456566930
H            3.60578845268869        1.85303981620663       -0.54041982496713
H            3.61020233217290       -1.73572144844989       -0.20760399077714
H           -2.00649970988957        3.07529844315158       -0.00150128515279
H           -3.32643225936020        2.37067644451451       -0.97014235352540
H           -3.42686703246650        2.34715754725991        0.78820604603440
H           -0.93926478645224       -3.09666336995074        0.86470418594968
H           -0.89251811405883       -3.09939720643227       -0.92202924267853
H           -2.33279557358524       -2.61279277622638       -0.07425992488720
H            1.36502065675095       -2.87274329839154       -0.12523146296529
