25
 energy: 66.492391359067 xtb: 6.6.1 (8d0f1dd)
C            3.78205016210695        0.87148287448699        0.11685635190101
N            2.67443628555229       -0.00243293544172       -0.00707867550125
C            2.84505293855686       -1.34806640176828       -0.13538079968789
N            1.63122213804697       -1.95104473085539       -0.10160656935888
C            0.60624808019618       -1.01357379346418       -0.00463209963391
C            1.28617069994641        0.27739256781246        0.06458203919014
C            0.72775811986930        1.47521113512337        0.10498471697084
O            0.37133337154222        2.59927141439578        0.23794265592102
N           -2.61599648961902        1.05313282115135       -0.05710407386508
C           -3.04142300887689        2.39159851557710       -0.05105373902899
C           -3.24404351912412        0.03770901424749       -0.06419382242531
O           -3.81135609634226       -0.97763518990588       -0.06958011010387
N           -0.65944837514720       -1.18426231528099        0.00882475114138
C           -1.16580659571736       -2.52504844366171       -0.02166414150455
H            3.74346364197160        1.57899947261864        0.94590790627220
H            4.61762354152228        0.22290450439069        0.33869896133185
H            3.99368496247113        1.42727931962925       -0.79071100808735
H            3.78644578850374       -1.84188213779859       -0.13219301049635
H           -2.21398505606825        3.09892551567116        0.01786534029659
H           -3.60046176964929        2.56483238872928       -0.97196492580142
H           -3.71649731074942        2.52995082548109        0.80033691301145
H           -0.84327230189512       -3.02949893389432        0.89166983740542
H           -0.77826193498685       -3.04864611012098       -0.90012666661123
H           -2.24742505452644       -2.50367411069454       -0.06991805457018
H            1.50701219821130       -2.94278878030469       -0.14325810988059
