25
 energy: 23.662225753449 xtb: 6.6.1 (8d0f1dd)
C            3.49996086687126        1.07532446075446        0.08520745994092
N            2.39610168484989        0.15375153337126       -0.00259076520107
C            2.60837433062578       -1.22259947740867       -0.01245470941441
N            1.38505785227861       -1.84194010065302       -0.06058844630438
C            0.38249123840819       -0.92379939206173       -0.03201888340641
C            0.95331607041514        0.35673833929147        0.01705076073377
C            0.05292857466087        1.43712750631975        0.06005969271688
O            0.23046543141781        2.63278733843299        0.08643680365366
N           -1.63294294507161        1.04463165823483       -0.01153944723123
C           -2.50719083003226        2.19283183326285       -0.04227531411240
C           -2.13504834512934       -0.19023248791057       -0.04631701367028
O           -3.24318777749744       -0.65242413596080       -0.08851599483233
N           -0.96623552056351       -1.17724241072628       -0.03265675516249
C           -1.35432483648460       -2.58456931727443       -0.04955575934889
H            3.86960485191261        1.24695682811291        1.11491723569308
H            4.39704133929989        0.65178416050435       -0.43589407902881
H            3.25800848819131        2.03034681874780       -0.37784397088637
H            3.54234686440217       -1.77244864198875       -0.07662932626081
H           -1.85806036819270        3.06032747141251       -0.00197003508458
H           -3.10361221370739        2.24846574719896       -0.95360903469514
H           -3.18864679993789        2.23090116313374        0.80754987212750
H           -1.02955847246058       -3.12186803159987        0.84759954650997
H           -0.99232786921777       -3.11554883415892       -0.93605505652740
H           -2.43256835423772       -2.59030345524758       -0.07743891788378
H            1.26331974718810       -2.84783542875068       -0.08736152956016
