25
 energy: 58.320320924848 xtb: 6.6.1 (8d0f1dd)
C            3.93235812100202        0.87981389797933        0.08426470341820
N            2.89488951244389       -0.09718005322546       -0.00719200311484
C            3.05458121229090       -1.43709404573732       -0.05420148010232
N            1.83124216577643       -2.03286269730600       -0.07236870466049
C            0.80680731908913       -1.08676671975734        0.01247692722314
C            1.51892662319626        0.19531139293032        0.07185415546510
C            0.99815580957096        1.40397817356713        0.11650863152787
O            0.46766709985282        2.45990606828394        0.17943891254724
N           -3.26098537717142        1.12899584945285       -0.06074064100288
C           -3.28666883468823        2.53914890115253       -0.06300032639217
C           -3.84763371160997        0.10268783329024       -0.07975139310293
O           -4.24006500903271       -0.99182747831109       -0.09580893174047
N           -0.45335260625573       -1.22710622979260        0.02625935377676
C           -1.09846960712052       -2.50818792401394       -0.03294144021071
H            4.00423487493086        1.29449982405939        1.09473675808400
H            4.88656834704335        0.42526701253372       -0.17979121788189
H            3.71783797885110        1.69614934223895       -0.60973472937706
H            3.99780737681841       -1.93076239110299       -0.07632568734358
H           -2.25635457894196        2.88990568353085       -0.00476982846690
H           -3.74433969771954        2.91535218995198       -0.98141465905972
H           -3.84556100766612        2.91803104338804        0.79625902611609
H           -0.88657573997395       -3.10838286367474        0.85964792345683
H           -0.80760204179545       -3.08941254823049       -0.91599317175102
H           -2.17059672976246       -2.32212689052545       -0.07480747421927
H            1.69934280584488       -3.02830858193849       -0.10557079099405
