25
 energy: 5.905220438281 xtb: 6.6.1 (8d0f1dd)
C            3.41599594263804        1.11011499298674        0.09364459208352
N            2.35119946389500        0.14517821694077        0.00584126368471
C            2.60023860284495       -1.23976820694127        0.00596797266889
N            1.37525991905376       -1.87431664751410       -0.03941951133302
C            0.37958838437646       -0.96194047748529       -0.02116211584484
C            0.91477232143615        0.32509026812613        0.01210553227628
C           -0.00765630461984        1.41574171766221        0.05025952278850
O            0.29662541624955        2.60243781647627        0.05594754605931
N           -1.50004178453644        1.03814895322078       -0.01001642834467
C           -2.41084825593367        2.17016729003072       -0.04120500300666
C           -2.02247419971659       -0.21584983995232       -0.04473418641579
O           -3.17779543372937       -0.55615035254944       -0.07880440551410
N           -0.97341855211470       -1.21874808451518       -0.03041909532951
C           -1.39812717612402       -2.60632381522674       -0.05327870436993
H            3.85401584436204        1.22500356068966        1.11532299872569
H            4.28042486983873        0.78266027901401       -0.51967823209143
H            3.07111672604017        2.06918775198767       -0.28513327080429
H            3.55443674787482       -1.74012616891595       -0.02289309983167
H           -1.78819563238583        3.05660636364439       -0.00393743681409
H           -3.01040525709783        2.19228774278025       -0.95146840579373
H           -3.08689928482441        2.17601699042684        0.81255680412502
H           -1.07726846106279       -3.14710202557449        0.84113856735511
H           -1.04504683524718       -3.13301830475191       -0.94415456949901
H           -2.47855552409611       -2.57743567984265       -0.07616288568227
H            1.28040148607374       -2.88185142119399       -0.05776734003058
