25
 energy: 62.602373610720 xtb: 6.6.1 (8d0f1dd)
C            3.85474985389610        0.86701610545785        0.08739786973740
N            2.76691905984253       -0.04141415389524        0.00407777429340
C            2.93511648839290       -1.38708019191287       -0.09764736382628
N            1.71412185713548       -1.97402781821253       -0.09406967127910
C            0.69206659351630       -1.02469854390765        0.00210668532385
C            1.38462603076755        0.27009949443724        0.05666445935317
C            0.85214349957624        1.48810027884592        0.14382533287263
O            0.35098982593423        2.56286190745872        0.20093211170845
N           -2.88205765209276        1.05514629074560       -0.05703126291154
C           -3.13351547126031        2.44936676686347       -0.04144760048273
C           -3.51690526148491        0.04869702215841       -0.06772639879900
O           -4.01383338798564       -1.00538192129817       -0.07778752498272
N           -0.57223341974763       -1.18807219221381        0.01756120337752
C           -1.12818540499245       -2.51895412622209       -0.02665818824280
H            3.84427399393139        1.47401976675077        1.00273790806647
H            4.74913426045201        0.25681309316845        0.20198950210732
H            3.98743015075390        1.43919574685392       -0.83819757613062
H            3.87464036158998       -1.89372647477802       -0.11255806817538
H           -2.20898792719288        3.01487982984740        0.02495688704940
H           -3.65752254804043        2.70845565358698       -0.96186144469565
H           -3.76686256719143        2.68721689790344        0.81929131164827
H           -0.83414758506364       -3.05729815361479        0.88121161738341
H           -0.74246059016850       -3.05939433801899       -0.89654941191313
H           -2.20990226885008       -2.43360979142994       -0.07682133214650
H            1.58045216452789       -2.96957523433463       -0.14303839445871
