25
 energy: 67.418656664927 xtb: 6.6.1 (8d0f1dd)
C            3.76731820717898        0.88417888343217        0.10759682503332
N            2.64956857732983        0.01439281663645       -0.01011725560341
C            2.81600242321869       -1.33234766306496       -0.13666464336834
N            1.60426628320361       -1.94143783927856       -0.10419892008911
C            0.57771698009973       -1.00914306063891       -0.01050179032626
C            1.25771733115144        0.28568956819630        0.06524060084902
C            0.68998109047502        1.47869828093076        0.09398374019028
O            0.33997713288287        2.60104769054196        0.25767020579365
N           -2.53193146234137        1.04667237137670       -0.05457679219063
C           -2.99638490018180        2.37159849905008       -0.05534738101228
C           -3.15545800607933        0.02593832002905       -0.06312365727512
O           -3.74264353331648       -0.97805265904174       -0.06693797215282
N           -0.68861832256262       -1.18852540026298        0.00428369567916
C           -1.18203003086992       -2.53491290402611       -0.02596813506378
H            3.74040959071138        1.58461606487084        0.94101564445923
H            4.61837223099098        0.20529316657452        0.24155287995871
H            3.94032918188165        1.50540989478132       -0.76609357014790
H            3.75635210100258       -1.82616370656951       -0.13712423155307
H           -2.18442318545669        3.09932073668533        0.01714634054673
H           -3.55426455607979        2.53007327068156       -0.97823382582624
H           -3.68754954601311        2.49129087364400        0.78398791555551
H           -0.85824035983494       -3.04212570087810        0.88518311798458
H           -0.79808264866204       -3.05560412588424       -0.90659592347757
H           -2.26312529221034       -2.52948065936308       -0.06821273849546
H            1.48261006174248       -2.93210364308233       -0.14073981481581
