25
 energy: 0.292610450452 xtb: 6.6.1 (8d0f1dd)
C            3.37146412214857        1.12617768182228        0.09694099009222
N            2.33614723350508        0.13188025221971        0.01493051843061
C            2.60027258912713       -1.24851080113812        0.01310568209862
N            1.38049120318760       -1.89557681967245       -0.02885531467033
C            0.38317430922453       -0.98887522935187       -0.01931616926992
C            0.91197010433793        0.29633643436858        0.01090461562583
C           -0.00089161463728        1.39638676041005        0.04179201945222
O            0.33912327099391        2.58209958873398        0.04096054754064
N           -1.44243200207895        1.03558029399204       -0.01441383971106
C           -2.36566061603408        2.15841319505062       -0.04345201074222
C           -1.97132569839444       -0.21828612011149       -0.04519607009477
O           -3.14106617102657       -0.51211371701393       -0.07625682281781
N           -0.96721518252635       -1.24093501687559       -0.03298636302418
C           -1.41728699774568       -2.61621672403459       -0.05507792124125
H            3.81121688006779        1.23232266593374        1.11645399357584
H            4.21729053037481        0.84766184204700       -0.55808698399645
H            2.97769554011345        2.08262668541470       -0.23116703080864
H            3.56271818700711       -1.72199333132370        0.00158614562342
H           -1.75665062240259        3.05614687290015       -0.00904213494499
H           -2.96859590343354        2.16032205798971       -0.95187057173146
H           -3.03835494380688        2.14401001868124        0.81310777933203
H           -1.10007854284652       -3.15892784043786        0.83896549529915
H           -1.06972032058113       -3.14399864168885       -0.94690017293328
H           -2.49858558115027       -2.56758607464757       -0.07544819461036
H            1.29808671176943       -2.90183854170477       -0.04153438345895
