25
 energy: 69.247135861252 xtb: 6.6.1 (8d0f1dd)
C            3.75432543946792        0.89413054480713        0.09310649164055
N            2.62408012671825        0.03413015916079       -0.00485178088398
C            2.78888154493544       -1.31203277651452       -0.14216217447108
N            1.58048347381565       -1.92830163581627       -0.10207595308346
C            0.55258575641483       -1.00065771605479       -0.01082626213897
C            1.23417057789466        0.29992191180132        0.08508457020567
C            0.63634033836629        1.48128680113326        0.08436538595843
O            0.29450680272361        2.60120203564018        0.28600982541440
N           -2.44212924697028        1.04100580153251       -0.05457530229846
C           -2.94371399476363        2.35407404479575       -0.05738692464448
C           -3.06365283022453        0.01764961636983       -0.06056848394906
O           -3.69111430652409       -0.96017903613139       -0.06816627651958
N           -0.71447883232589       -1.19172308455588        0.00160699190704
C           -1.19524931920444       -2.54312033311870       -0.02877186230292
H            3.77663585037052        1.53398760467425        0.96163614715985
H            4.61128525970194        0.19380648226157        0.13373210193660
H            3.89102952129919        1.58744395570501       -0.73186194165670
H            3.72974166472409       -1.80255191325534       -0.15884793208692
H           -2.14595731510823        3.09379698485877        0.01451246216808
H           -3.50595271687454        2.49976346300189       -0.97865529721643
H           -3.63558771570068        2.46376409395472        0.77977436016775
H           -0.87474509417719       -3.05299416909041        0.88168994659765
H           -0.81496705504250       -3.06732788887992       -0.90870384355655
H           -2.27329902422924       -2.55024869400855       -0.06813325610477
H            1.46522968102152       -2.91720626967917       -0.13646468568092
