25
 energy: -3.757780284910 xtb: 6.6.1 (8d0f1dd)
C            3.32940183656084        1.14354601635963        0.09412769735036
N            2.32565450883933        0.12200967959905        0.02528734998678
C            2.60301530005015       -1.24509927909440        0.02424145870505
N            1.39561135798538       -1.91265202250202       -0.01674243159298
C            0.38967031402633       -1.01550887691112       -0.01514930826499
C            0.91577146634838        0.26916618161458        0.01170082253173
C            0.03371229282938        1.38464121883879        0.02361476948831
O            0.39196324424110        2.56827876746011        0.02545018682605
N           -1.38268568628084        1.03747428466788       -0.02027316797646
C           -2.31613283800236        2.15253332256883       -0.04658640172829
C           -1.91937695105249       -0.21298660452329       -0.04388727410636
O           -3.10188516899881       -0.46424941565069       -0.07314783492738
N           -0.95780155521417       -1.26179794974998       -0.03419602980006
C           -1.43709329371549       -2.62452427433262       -0.05682078947414
H            3.77974296948104        1.22970624437587        1.10264225723696
H            4.15272853498796        0.91552976686908       -0.60014249722495
H            2.88333074810831        2.09220095020853       -0.18319815247027
H            3.57250875821081       -1.69728790887416        0.02357623919226
H           -1.72277994129912        3.06229589160648       -0.01727378886607
H           -2.91987567701659        2.13778380880133       -0.95409505775284
H           -2.98402144808589        2.12198101485931        0.81352920840275
H           -1.12536219590267       -3.17184236010801        0.83615675843786
H           -1.09635930527261       -3.15393684007863       -0.95006623777360
H           -2.51943489718506       -2.55681113828298       -0.07519623038064
H            1.32241850602006       -2.91832752587913       -0.02884643161729
