25
 energy: -42.223126317791 gnorm: 0.007678797497 xtb: 6.6.1 (8d0f1dd)
C            2.70000363345175        1.42049185462725       -0.00874336857816
N            1.97807470344142        0.17732962478700       -0.02427716237905
C            2.48851057971424       -1.03946947439988       -0.04133189234176
N            1.49908370003019       -1.95828701999354       -0.02960767976206
C            0.30183374490939       -1.29524179439541       -0.00382362456140
C            0.60892906206317        0.06722298813120        0.00148586038919
C           -0.49869848993839        0.98375230931764        0.01495682536185
O           -0.25878388135093        2.27447973674098        0.01613362809576
N           -1.70143080938366        0.50988445446281        0.02525900391355
C           -1.38720600167245        3.14864166251275        0.02854902647189
C           -2.04003315576372       -0.80372308608452        0.02469524051117
O           -3.15508160500194       -1.21961579518393        0.03610344860391
N           -0.93649173159698       -1.76814349447663        0.00723183775710
C           -1.24419198082840       -3.18342219470382       -0.00049082780577
H            2.81335202680151        1.77564490383104        1.01720286471729
H            3.68595630098220        1.28898406537340       -0.45059804102337
H            2.13769129770080        2.16896156311117       -0.56596158734387
H            3.53480835714940       -1.27563813619817       -0.06291627561453
H           -0.97861037331370        4.15857904800687        0.07246943789226
H           -1.98450740150365        3.00786482280865       -0.87326602633984
H           -2.01266126893488        2.94250853769203        0.89576554453425
H           -0.86530279425543       -3.66747130251028        0.90056473690968
H           -0.83087234230431       -3.66495720055800       -0.88753201920300
H           -2.33107365645206       -3.27074009509735       -0.02056474046070
H            1.63713360015704       -2.95939743620332       -0.04013259184713
