  25
        -42.12999552
 C          3.1715194581        1.0865086197        0.0689264947
 N          2.3013876502        0.0784431098        0.0554592488
 C          2.5636690381       -1.2385229807       -0.1468922352
 N          1.4042519335       -1.9336308296       -0.1523144712
 C          0.3757850148       -1.0515151444        0.0555847114
 C          0.9335262996        0.1932625287        0.2154370194
 C          0.1221856275        1.4542842133        0.3487579411
 O          0.5409363258        2.4530146243       -0.3622704746
 N         -1.3023531670        1.0573673831        0.0767770591
 C         -2.1924566836        2.1795235876       -0.0915336555
 C         -1.8427326212       -0.1879137319        0.0370853636
 O         -3.0275433232       -0.3899626419       -0.0489981282
 N         -0.9504423322       -1.2951560355        0.0682147628
 C         -1.4950827262       -2.6306493555       -0.0288498116
 H          0.0958840669        1.7588130591        1.4409236189
 H          4.2182291060        0.8877418863       -0.0605894323
 H          2.7828051448        2.0873034990        0.1440750377
 H          3.5394521434       -1.6571687901       -0.2861509942
 H         -1.6301699204        2.9770374987       -0.5815325292
 H         -3.0511626856        1.8806478434       -0.6896641240
 H         -2.5504047429        2.5426064143        0.8762489478
 H         -1.1176821715       -3.2543808484        0.7818026141
 H         -1.2542328963       -3.0828253253       -0.9931309856
 H         -2.5786549851       -2.5477921486        0.0549465299
 H          1.3278160543       -2.9308953887       -0.2913644302
