72
 energy: -99.307183850551 gnorm: 0.009683815754 xtb: 6.6.1 (8d0f1dd)
N           -1.94645302244932        2.93510219316159        2.10745493041936
C           -1.89330659047911        2.14863892298189        1.13886832165050
C           -3.03025716754984        1.86624819609714        0.19644193822712
C           -3.43551878985772        0.40482189262697        0.31620423601703
C           -4.29171213025702       -0.16153070707274       -0.63055526474298
C           -4.71205500100203       -1.47722754160432       -0.52957101516317
O           -5.53913000222959       -2.10178316346247       -1.39449067418542
C           -6.09431177912372       -1.37704703697008       -2.46593520752619
C           -4.26372998244291       -2.27443436408173        0.55782477998628
O           -4.72457956613100       -3.54171166922583        0.57585899280805
C           -4.40178649603143       -4.37185196525117        1.66691435051234
C           -3.41557855264109       -1.70582293713550        1.49435774683938
C           -3.00881441742194       -0.38322387131017        1.37373646798987
C           -2.48039302627177        2.15774253492509       -1.22427091998939
C           -1.47918931329666        1.11026555481327       -1.74174412507352
C           -0.15625500758260        1.19414400055267       -1.08405692428045
N            0.57730725891723        0.15502523285440       -0.70241265757860
C            1.92935023255750        0.35251488311285       -0.23654383118945
C            2.95487490975641        0.17354427883665       -1.37376720561212
C            4.35506551803689        0.20660676786146       -0.80825306079572
C            5.18346804808752        1.24578204567574       -1.08303844202292
C            6.51761821069443        1.50692399916025       -0.63652668949259
C            7.23534802940243        0.68602422395941        0.15968816641562
O            8.46513813526742        0.86281283856567        0.64356112062193
C            9.16402860502625        2.05414957579325        0.32995739887492
C            4.60262090151993       -1.94231716759024        0.62251744106171
O            4.68070746235173       -3.00907003075008        1.35363123118828
C            5.27414837770664       -4.14984667322672        0.75528313794326
C            4.66987699656289       -0.90417967965206       -0.00099352813566
C            0.08096149884263       -1.19835227282177       -0.77556678056277
C           -4.29030934840563        2.74043737518504        0.46713038272536
C           -4.88964803259723        2.44361119327497        1.83967430582094
C           -4.02262515630890        4.23720925032607        0.33463900466011
H           -4.64802761863920        0.44092756632961       -1.44964261271118
H           -6.69676659229061       -0.53493393286108       -2.11226573286733
H           -6.73553950865349       -2.08139134492853       -2.99213795185963
H           -5.32110817551782       -1.01317687329788       -3.15063273165515
H           -4.75345180061564       -3.94670983872242        2.61159386093543
H           -4.91694671671454       -5.31215544534043        1.48056423390691
H           -3.32423857237795       -4.55544879811184        1.72745899829219
H           -3.07328359923444       -2.28087440343962        2.33932137819383
H           -2.37330852060992        0.03375512399849        2.13967535021577
H           -3.31664679223996        2.20432303400770       -1.92093976819298
H           -2.00056720653440        3.13707930204294       -1.22076502707320
H           -1.91081449892164        0.11499171101545       -1.64808856992915
H           -1.33139947947864        1.31128775278430       -2.81112891501225
H           -0.97570353848469        1.60754201185842        0.83678004487240
H            0.31955070238638        2.16284362199651       -1.03875289445419
H            2.14641977683399       -0.36870115332806        0.55496103133320
H            2.02852519647886        1.35852249880465        0.17976398674525
H            2.82092417791609        0.96512392174475       -2.11424495995642
H            2.78020725450969       -0.79212622686214       -1.85895977735956
H            4.78294353000120        2.00661702542870       -1.74246977082976
H            6.93504079035637        2.44597403219782       -0.97422358347574
H            8.62342390213164        2.93431461721728        0.68815729800996
H            9.33236846947741        2.14285869631359       -0.74747417238801
H           10.12296268019368        1.97726536572692        0.84334164854006
H            6.11187078788718       -3.87214832998560        0.11507038059444
H            5.62297184564043       -4.77508432437994        1.57498455699248
H            4.53057393883971       -4.70214453352272        0.16893984756686
H            6.81447089739332       -0.25931964470173        0.48492811088302
H           -0.10818714048805       -1.49458615918860       -1.81001991800759
H           -0.84918301340464       -1.29473217312774       -0.20779499203096
H            0.81876809334417       -1.87512948901596       -0.35050196047359
H           -5.03001823901352        2.45827038137431       -0.29112426564727
H           -4.19016219349805        2.72606838244136        2.61984013579832
H           -5.12964752267838        1.38825818421024        1.94421632544023
H           -5.80363118672016        3.01686467737912        1.96999018065708
H           -3.25593351355442        4.54606165228589        1.03837731177654
H           -3.71764058670411        4.50854729517413       -0.67251933784479
H           -4.93379484195719        4.78328349665384        0.56397687168579
H           -1.10336639072125        3.06881596266605        2.65699260451281
