  25
        -42.23805135
 C          3.3034103601        1.0813529034        0.0134719836
 N          2.2989106681        0.0510681161       -0.0022392960
 C          2.4991969104       -1.2791805711       -0.0057271811
 N          1.3806681020       -1.9769709050       -0.0047193592
 C          0.4088754728       -1.0565394238        0.0009165020
 C          0.9415581377        0.2312313247        0.0031517476
 C          0.1246512617        1.4045794032       -0.0025424392
 O          0.4479019407        2.5586499209       -0.0117000948
 N         -1.2733081666        1.0367841321        0.0013397493
 C         -2.2358043167        2.1293712102        0.0006208400
 C         -1.7435078306       -0.2130080040        0.0020121780
 O         -3.0501835774       -0.3394959806        0.0026527099
 N         -0.9482748558       -1.2843024850        0.0014607919
 C         -1.4320403754       -2.6549211164        0.0006325249
 H          3.8121418299        1.0959074223        0.9785578412
 H          4.0391271924        0.8950178374       -0.7682131895
 H          2.8286262720        2.0463719169       -0.1525138006
 H          3.4685758636       -1.7357823970       -0.0105299516
 H         -1.6720494329        3.0605456611        0.0061148765
 H         -2.8607305595        2.0805451698       -0.8895224756
 H         -2.8688039732        2.0739519370        0.8845755267
 H         -2.0146995848       -2.8678461632        0.8982938658
 H         -2.0165466257       -2.8663982370       -0.8959909787
 H         -3.3621973872       -1.2589407045        0.0021382184
 H         -0.5468355409       -3.2907512368       -0.0008971646
