  25
        -42.13792141
 C          3.3614380922        0.5938299426       -0.0039848345
 N          2.2462230475       -0.3122026181       -0.0028372133
 C          2.3011301051       -1.6489837619       -0.0020787157
 N          1.0421898727       -2.1596443707        0.0027578339
 C          0.1643073713       -1.1157315803        0.0052418055
 C          0.9167395721        0.0553545513        0.0032280754
 C          0.3175170157        1.3511743544       -0.0007924831
 O          0.8820655157        2.4278604330       -0.0118959607
 N         -1.1188075314        1.2708874807        0.0062662203
 C         -1.7946297606        2.4308013560        0.0195055466
 C         -1.8876550910        0.0715762358       -0.0047591036
 O         -3.0901205793        0.1050933800       -0.0154302747
 N         -1.1868808599       -1.1314740851       -0.0000811790
 C         -1.9312062113       -2.3758056579        0.0010397658
 H          3.8834057003        0.5581782684        0.9538171249
 H          4.0627331362        0.3295350902       -0.7950606561
 H          2.9902188544        1.6054431368       -0.1643010274
 H          3.1982569776       -2.2330515973       -0.0042623684
 H         -0.3191254624        4.9649257421        0.1011073706
 H         -1.2247113324        3.3601634450        0.0344556403
 H         -2.8673166128        2.4049219199        0.0080071626
 H         -1.7218521516       -2.9436690150        0.9082512060
 H         -1.6820090299       -2.9687840756       -0.8793871865
 H         -2.9918768220       -2.1291691885       -0.0255476569
 H          0.8149819394       -3.1427379724        0.0044920383
