  72
        -99.38957677
 N         -1.5749433932        2.5511813601        2.4229212358
 C         -1.6164784945        1.7460690345        1.4668577983
 C         -2.6480256946        1.7890317150        0.3728457969
 C         -3.4559445788        0.5051563974        0.3830671901
 C         -4.2745667889        0.1909917575       -0.7023326837
 C         -5.0416314100       -0.9631827457       -0.7206909437
 O         -5.8417516228       -1.3496440333       -1.7322729827
 C         -5.9450074546       -0.5407849845       -2.8805638806
 C         -5.0077969352       -1.8444502285        0.3969412666
 O         -5.7839670532       -2.9374570041        0.2942592190
 C         -5.8373598775       -3.8491335283        1.3673888853
 C         -4.2015066665       -1.5175913889        1.4779830966
 C         -3.4375073622       -0.3597967100        1.4693960376
 C         -1.8503903207        1.9379709671       -0.9567001305
 C         -1.2711910754        0.6626015044       -1.5888692403
 C          0.1758081471        0.3074369137       -1.2243370698
 N          0.3548786126       -0.1824750755        0.1292201987
 C          1.6649777588        0.0678843550        0.7061518123
 C          2.7781847572       -0.7640276023        0.1568410947
 C          4.1120131426       -0.4076973203        0.0635690791
 C          4.6202284373        0.8656582186        0.4354615329
 C          5.9502229025        1.1702012424        0.2903935785
 C          6.8570932338        0.2380058846       -0.2217777278
 O          8.1618467465        0.4426073501       -0.4114823160
 C          8.7338667504        1.6902375027       -0.0873525406
 C          6.3789044228       -1.0626059738       -0.5872553165
 O          7.3256305849       -1.8974359511       -1.0554135599
 C          6.9615444738       -3.2080199975       -1.4280322803
 C          5.0466316660       -1.3577107953       -0.4451292768
 C         -0.1742235370       -1.5073486867        0.3585870459
 C         -3.6488360232        2.9749174669        0.5200057667
 C         -4.4802033408        2.8561936965        1.7949536153
 C         -2.9731291643        4.3421094160        0.4756696887
 H         -4.3095471301        0.8608452137       -1.5452507931
 H         -6.3518572398        0.4461443171       -2.6403067369
 H         -6.6328554340       -1.0616296433       -3.5437374802
 H         -4.9774412547       -0.4275265834       -3.3795779863
 H         -6.2110420743       -3.3729450267        2.2784948678
 H         -6.5317950914       -4.6267265720        1.0554015476
 H         -4.8573184616       -4.2948541705        1.5629576056
 H         -4.1642445969       -2.1608452358        2.3420160925
 H         -2.8372161521       -0.1286161438        2.3352953872
 H         -2.5248791021        2.3894881628       -1.6852966877
 H         -1.0408909104        2.6504702612       -0.7903988312
 H         -1.9182442473       -0.1898680921       -1.3880722850
 H         -1.2680121087        0.8126870755       -2.6708725013
 H         -0.8711494020        0.9578485642        1.2938074309
 H          0.8005753203        1.1945816966       -1.3496777953
 H          1.5827759587       -0.1320663593        1.7857993912
 H          1.8807669518        1.1332349954        0.5899886165
 H          0.5096492889       -0.4460448245       -1.9557891086
 H          2.5034828819       -1.7616583686       -0.1530981835
 H          3.9550515082        1.6122503953        0.8374480934
 H          6.2973069375        2.1500195438        0.5774499954
 H          8.6293695171        1.9128168614        0.9781872967
 H          8.2896990170        2.4981764288       -0.6759202814
 H          9.7894393530        1.6000651605       -0.3360436469
 H          7.8788266239       -3.6774345908       -1.7763533346
 H          6.5665857857       -3.7682012068       -0.5756343488
 H          6.2261119359       -3.2029527950       -2.2375639244
 H          4.6728375225       -2.3315732982       -0.7177228002
 H          0.2263794406       -2.2516698811       -0.3406202642
 H         -1.2584238804       -1.4895278757        0.2469707091
 H          0.0590035772       -1.8203071099        1.3745147223
 H         -4.3341977964        2.9058396521       -0.3334039701
 H         -3.8392635372        2.9486025835        2.6666620199
 H         -5.0022754674        1.9032896337        1.8391916585
 H         -5.2193606825        3.6525464630        1.8249353098
 H         -2.2671267581        4.4372989521        1.2953518477
 H         -2.4545149800        4.5099140840       -0.4641953020
 H         -3.7273923498        5.1173432354        0.5846421567
 H         -0.8183531892        2.4652838760        3.0936793252
