  25
        -42.10635712
 C          3.6991781207        1.5470382683       -0.2184519495
 N          2.7371687204        0.5047102327        0.0194356290
 C          2.9961292840       -0.7834396967        0.2704334864
 N          1.8542195460       -1.4704634890        0.4501461595
 C          0.8210635915       -0.5893276754        0.3106075165
 C          1.3837555052        0.6525694518        0.0425772698
 C          0.3195083796        1.6422171014       -0.1118642215
 O          0.3605290522        2.8250494436       -0.3461395376
 N         -0.8461741600        0.8846250876        0.0822082501
 C         -2.1598863476        1.4839137126        0.0415921978
 C         -0.6280549487       -0.4603550308        0.3297112644
 O         -1.4953312838       -1.3051875554        0.5059306426
 N         -3.7050719256       -2.6825442931       -0.4977060887
 C         -4.8500291317       -2.2705923715       -0.8415551519
 H          4.2770468288        1.7451396605        0.6856434870
 H          4.3836042642        1.2576630035       -1.0162573045
 H          3.1684825183        2.4531688029       -0.5055647308
 H          3.9796707465       -1.2089551245        0.3203268334
 H         -2.0310158707        2.5647131371        0.0649804891
 H         -2.6821561799        1.2040987820       -0.8748296164
 H         -2.7391826076        1.1584507529        0.9053416531
 H         -2.9435895059       -2.1063137677       -0.0879612761
 H         -3.4773441392       -3.6693802621       -0.6078045746
 H         -5.1144873094       -1.2244266596       -0.7240634406
 H          1.7869715448       -2.4562686273        0.6607484589
