25
 energy: -42.238213334135 xtb: 6.6.1 (8d0f1dd)
C            3.41696392962696        0.91147667196740        0.13876636893966
N            2.04064156548860        0.59431270819635        0.12253252541215
C            2.46140299010149       -2.37052901494090       -0.40972310849132
N            1.52610364080845       -1.52887277846882       -0.09144249660515
C            0.24597711039718       -0.78095936072184       -0.10313181512113
C            0.64837515001871        0.56754173565441       -0.01873969792069
C            0.48649289020911        1.87774123190537        0.04274397711660
O            0.75609148833047        2.99151602213145        0.10281324286711
N           -1.71567025122112        0.96093168077370       -0.03502030032307
C           -2.61767203404620        2.09032409199344       -0.07522675826336
C           -2.21009559689123       -0.23854515034858       -0.08580377162770
O           -3.30888559816826       -0.72114665873088       -0.13463547078455
N           -1.00362624777391       -1.22624495495488       -0.09457140452447
C           -1.16203381751645       -2.64023584273539       -0.06713481631876
H            3.96154700611574        0.37995745467534        0.96273616095870
H            4.00599351046948        0.56751984912183       -0.73211905510759
H            3.63590025837454        1.97605975035077        0.23113341963547
H            3.41895503032131       -2.61870408856784        0.06573468757378
H           -2.10533445360623        3.05885052690702       -0.01306847592766
H           -3.19755991311890        2.05499079473761       -1.00060408781970
H           -3.32398099839328        2.01120547989898        0.75373404535871
H           -0.69321399647509       -3.01984793910584        0.85156551945392
H           -0.62525937516284       -3.04442202806414       -0.91612100224017
H           -2.20609533149869       -2.92843679398167       -0.07252468477134
H            1.99146322895143       -1.03610061248169        0.63735332121073
