25
 energy: -42.080983420509 gnorm: 0.005055873618 xtb: 6.6.1 (8d0f1dd)
C            3.14051351815154        1.14343723941037       -0.08467115896075
N            2.22611711448192        0.03335314759897       -0.04242564264641
C            2.53815256633235       -1.25276431464267        0.02233777068444
N            1.41382438518617       -1.99757799503029        0.05772348087817
C            0.34520545884086       -1.15219157963445        0.01410234859990
C            0.85255348876421        0.13952861686488       -0.04691973954173
C            0.00667441142197        1.29678314219496       -0.12069059261388
O            0.35317961538463        2.45457934750918       -0.20375839284463
N           -1.37647661894248        0.93198196936177       -0.08884646121350
C           -2.27309074315029        1.92829004330097       -0.14537909268336
C           -1.89837458124001       -0.39924132538835       -0.02156167028557
O           -3.07947874477141       -0.60255613197556       -0.00158752704502
N           -0.97157009635246       -1.43752462968292        0.02016391800580
C           -1.45213671961888       -2.80633255664856        0.08982928070129
H            3.61094172702616        1.28365918309752        0.88951897927729
H            3.91705029475260        0.96567079736766       -0.82742680696603
H            2.58476015559033        2.04548696818206       -0.33799722835091
H            3.53429741925900       -1.64960268717001        0.04190886756064
H           -1.70105254538313        4.69661108427668        0.61308346737909
H           -1.91628091956863        2.95290559642248       -0.10923170553289
H           -3.31506500146351        1.67887049860365       -0.11463215598494
H           -1.11738861627021       -3.27889789660646        1.01311289913354
H           -1.10557814922270       -3.37415057452137       -0.77330647200787
H           -2.54011072507262       -2.77585592025293        0.08168923410434
H            1.38376481996461       -3.00622348103748        0.10613601825293
