  25
        -42.18198978
 C          3.1277527668        1.0773827365        0.4757012730
 N          2.1831786008        0.0656196597        0.1150152843
 C          2.4083214807       -1.3106739410        0.1598231389
 N          1.4085597765       -2.0128674382       -0.1873956832
 C          0.3713141479       -1.1064751324       -0.6076284645
 C          0.9302580624        0.2408841218       -0.3004151672
 C          0.0821056467        1.4105244125       -0.1849641577
 O          0.4865072090        2.5508769194       -0.1027529444
 N         -1.2611535338        1.0729975904       -0.1311668142
 C         -2.2245855588        2.1515003181       -0.0443630255
 C         -1.7825558741       -0.2146509443        0.1050895772
 O         -2.9386405546       -0.3486657911        0.4107417667
 N         -0.9222038014       -1.2792979373       -0.0004733204
 C         -1.4279208620       -2.6208295490        0.1453216351
 H          3.6646083827        0.7808150853        1.3768832254
 H          3.8541928926        1.2130952145       -0.3303927775
 H          2.6086816853        2.0239170032        0.6331055327
 H          3.3492128216       -1.7189694500        0.4824296728
 H         -1.7297655693        3.0810402765       -0.3178958942
 H         -3.0587835272        1.9410942347       -0.7146861362
 H         -2.6257700845        2.2309800571        0.9688029549
 H         -0.6925246486       -3.2202314342        0.6818568925
 H         -1.6046156583       -3.0819859092       -0.8303074161
 H         -2.3665356361       -2.5764236319        0.6948131843
 H          0.2617956124       -1.2665260399       -1.7021541827
