  25
        -42.08330371
 C          3.1576952518        1.0723586144       -0.0277084172
 N          2.2878875288        0.0665786265       -0.0058193898
 C          2.5523214309       -1.2622295947       -0.0036045942
 N          1.3906072377       -1.9609652348       -0.0062713793
 C          0.3565296236       -1.0706936893       -0.0056327601
 C          0.9028162349        0.1982122746       -0.0077920764
 C          0.0768588712        1.3898263130       -0.0029249151
 O          0.4841390708        2.5257153123        0.0075987652
 N         -1.2758854849        1.0568151402       -0.0088873383
 C         -2.2396291465        2.1511483504       -0.0099261104
 C         -1.8469552739       -0.2007705846       -0.0117205303
 O         -3.0314063647       -0.3759731378       -0.0167207612
 N         -0.9615399503       -1.3076700584       -0.0074497355
 C         -1.5120603166       -2.6478729638       -0.0020995281
 H          3.7619188065        3.4972770838        1.5149667879
 H          4.2110821253        0.8643327848       -0.0156346498
 H          2.7737631514        2.0777817602       -0.0610992917
 H          3.5310581298       -1.6963066518       -0.0116643591
 H         -1.6899827999        3.0878263292        0.0268014798
 H         -2.8483675987        2.1043272400       -0.9123239808
 H         -2.8974716560        2.0604178750        0.8535679829
 H         -1.2100163489       -3.1827449427        0.8987442474
 H         -1.1959661079       -3.1952644773       -0.8903055659
 H         -2.5976367180       -2.5525349583       -0.0112612054
 H          1.3202067651       -2.9684856051       -0.0010344119
