  72
        -99.41034821
 N         -0.6457887951        1.3774553206        1.3457830307
 C         -1.5459552213        2.2449917383        1.2043941286
 C         -2.7976100043        2.0153811727        0.4031913881
 C         -3.3249407875        0.5882873511        0.4481393894
 C         -4.3393227650        0.2195652855       -0.4406649786
 C         -4.9063043373       -1.0432025425       -0.4185655979
 O         -5.8895196191       -1.4693403407       -1.2411558090
 C         -6.4972615133       -0.5541478628       -2.1218714448
 C         -4.4496164965       -1.9988591868        0.5274811152
 O         -5.0503657565       -3.2044167163        0.4738897027
 C         -4.6871833168       -4.1927433176        1.4090468200
 C         -3.4542597445       -1.6244987101        1.4146301333
 C         -2.9058219813       -0.3484231515        1.3793768108
 C         -2.4421882746        2.4242586128       -1.0522571386
 C         -1.6232181028        1.3706277326       -1.8220643877
 C         -0.2181554710        1.2911185867       -1.3726971545
 N          0.4083054173        0.1976803415       -0.9989365951
 C          1.7797514777        0.2468396912       -0.5551363750
 C          2.7660923389       -0.2484970694       -1.6307219412
 C          4.1629795574       -0.1811139794       -1.0785681331
 C          4.8425143248        1.0258007419       -1.0382733914
 C          6.0996901444        1.1139321059       -0.4614868626
 C          6.7051108637       -0.0077059921        0.0866613551
 O          7.9114439094       -0.0349104015        0.6836469245
 C          8.6585400815        1.1562877968        0.7749783089
 C          6.0242228168       -1.2547149950        0.0323726944
 O          6.6899077515       -2.2959634291        0.5710153130
 C          6.1212833571       -3.5823234704        0.5130631774
 C          4.7634750257       -1.3161067208       -0.5412311962
 C         -0.2630691691       -1.0741214049       -0.9068910690
 C         -3.9396782782        2.9327476237        0.9486306870
 C         -4.1684497729        2.6617436908        2.4363105396
 C         -3.7281540976        4.4290000049        0.7169090964
 H         -4.7037681246        0.9353880300       -1.1586639027
 H         -6.9177788101        0.3013069061       -1.5841062807
 H         -7.3020147486       -1.1044877595       -2.6058335668
 H         -5.7952122774       -0.2000885560       -2.8847274875
 H         -4.8898536600       -3.8689709135        2.4344966097
 H         -5.3055640198       -5.0571276083        1.1752484811
 H         -3.6315445299       -4.4663684099        1.3148717980
 H         -3.1014763821       -2.3192533399        2.1591703335
 H         -2.1433160201       -0.0966483560        2.0967638905
 H         -3.3659341504        2.6020000487       -1.6026846933
 H         -1.8851303092        3.3623960573       -1.0328995586
 H         -2.1221107046        0.4076348831       -1.7525037751
 H         -1.6204445894        1.6844088068       -2.8731630897
 H          0.3561945733        2.2056385225       -1.3752212974
 H         -1.4510114726        3.2602741662        1.5931967543
 H          1.8787499984       -0.3719998331        0.3404959700
 H          2.0400225834        1.2729768921       -0.2886590183
 H          2.6775987478        0.3878938601       -2.5133641769
 H          2.5210535801       -1.2716152176       -1.9180889238
 H          4.3971746657        1.9114357433       -1.4651940152
 H          6.6028637970        2.0666131946       -0.4441631625
 H          8.1370523689        1.9098857521        1.3734536038
 H          8.8833145131        1.5658872673       -0.2143391291
 H          9.5874707033        0.8816744586        1.2712570947
 H          6.8480407205       -4.2437485633        0.9808662392
 H          5.1788696416       -3.6320946922        1.0680883145
 H          5.9551282276       -3.9007085821       -0.5210577569
 H          4.2378289624       -2.2571018225       -0.5836552775
 H         -0.7392286161       -1.3356774926       -1.8506107025
 H         -1.0215024884       -1.0328810647       -0.1217573351
 H          0.4583588084       -1.8474647847       -0.6606286025
 H         -4.8528720917        2.6474777608        0.4156810978
 H         -3.3147810344        2.9813276236        3.0303010490
 H         -4.3343896137        1.6018450160        2.6160333825
 H         -5.0425859170        3.2069747117        2.7829707090
 H         -2.8086702962        4.7897930345        1.1704225861
 H         -3.7135593668        4.6770036612       -0.3407964982
 H         -4.5518583174        4.9729769835        1.1718832862
 H          0.1631322928        1.6703059396        1.8872593150
