  72
        -99.34781832
 N         -1.4382206808        2.7339922300        2.3844431094
 C         -1.6206811067        1.9991229996        1.3894167755
 C         -2.8809529292        1.9886634940        0.5678188132
 C         -3.4173563761        0.5685784093        0.4930656347
 C         -4.3993196403        0.2349436689       -0.4417103549
 C         -4.9405991899       -1.0387313041       -0.4998311606
 O         -5.8941613334       -1.4425658770       -1.3674076728
 C         -6.4840296404       -0.4995235388       -2.2301025105
 C         -4.4889829894       -2.0336998503        0.4074831462
 O         -5.0687753135       -3.2459046782        0.2789619427
 C         -4.7456052668       -4.2575220908        1.2037047224
 C         -3.5206000723       -1.6940741035        1.3383743352
 C         -2.9970413008       -0.4093886104        1.3816408633
 C         -2.4702182799        2.5035829131       -0.8387385924
 C         -1.6667063818        1.5070578161       -1.6853420075
 C         -0.2466326000        1.3903475245       -1.2640315383
 N          0.5154509307        0.3120354009       -1.4550255644
 C          1.7966288709        0.2633329671       -1.0821777699
 C          2.7266904317       -0.8736858935       -1.3458848088
 C          4.1403963129       -0.5667098234       -0.9308577451
 C          4.7701933038        0.5907405446       -1.2562414316
 C          6.0939572794        0.8640293791       -0.8709939258
 C          6.8214174987       -0.0477452968       -0.1046696238
 O          8.0827433855        0.1451728962        0.3463618218
 C          8.7532485778        1.3407517527        0.0161536756
 C          6.2351552563       -1.2637284069        0.2633111364
 O          6.9752207676       -2.0846788869        1.0201753305
 C          6.4698012259       -3.3372201572        1.4158488151
 C          4.8586101320       -1.6407358946       -0.1748835155
 C         -0.1062304146       -0.8529144927       -2.0622453482
 C         -4.0138720837        2.8902186054        1.1424954747
 C         -4.4466582996        2.4275340976        2.5317660380
 C         -3.6495749322        4.3717818922        1.1872109012
 H         -4.7554046428        0.9881103763       -1.1250648721
 H         -6.9497336083        0.3184134871       -1.6721666407
 H         -7.2511743428       -1.0445682020       -2.7766449424
 H         -5.7571279452       -0.0917017998       -2.9403001414
 H         -4.9803769417       -3.9537808104        2.2282970231
 H         -5.3622542313       -5.1114853919        0.9303775743
 H         -3.6894268840       -4.5388405815        1.1395878828
 H         -3.1734785999       -2.4220657560        2.0535327669
 H         -2.2705897483       -0.1746216142        2.1440345844
 H         -3.3772321235        2.7617982400       -1.3853464922
 H         -1.8900263564        3.4186701729       -0.7177341990
 H         -2.1707123436        0.5401731280       -1.6638705267
 H         -1.6998860369        1.8661844962       -2.7242061808
 H         -0.8546818628        1.3167600761        0.9830130484
 H          0.2509895041        2.2733723606       -0.8966937622
 H          4.2644027868       -1.9567829669        0.6874377875
 H          2.1897959707        1.1418533931       -0.6005209000
 H          2.7303425785       -1.1118918043       -2.4203277062
 H          2.3964627497       -1.7795456265       -0.8212671418
 H          4.2496333881        1.3422176189       -1.8311566693
 H          6.5367482349        1.7984870728       -1.1687457091
 H          8.2365772568        2.2163814162        0.4206504740
 H          8.8703580500        1.4500107304       -1.0660759045
 H          9.7353890468        1.2579222692        0.4776188905
 H          7.2623783470       -3.8019736496        1.9990744577
 H          5.5778525860       -3.2341482377        2.0417673564
 H          6.2356090747       -3.9698870413        0.5547328773
 H          4.9316829759       -2.5350259635       -0.8222604465
 H         -0.5388089251       -0.5821071817       -3.0247211299
 H         -0.8986329976       -1.2319099996       -1.4150250347
 H          0.6209054066       -1.6418817669       -2.2162355944
 H         -4.8703107183        2.7705722812        0.4679790913
 H         -3.6336304031        2.5606401635        3.2386177724
 H         -4.7430539938        1.3813061956        2.5243227434
 H         -5.2945121426        3.0198389038        2.8657758954
 H         -2.7647661457        4.5208095574        1.7977772071
 H         -3.4754162173        4.7782327622        0.1947465613
 H         -4.4710909260        4.9262671897        1.6336397324
 H         -0.5355969177        2.6848823652        2.8470711501
