72
 energy: 25.587271301231 xtb: 6.6.1 (8d0f1dd)
N           -1.52839095612263        3.14476117609541        2.26805280024951
C           -1.64767875775374        2.48218448194255        1.21095017845712
C           -2.92885729216777        2.41419474870613        0.41684752735582
C           -3.37536815794047        0.94531748345254        0.36010106047314
C           -4.24344762072046        0.51926730586968       -0.64398967526262
C           -4.68598768471863       -0.78928376070412       -0.69880787410501
O           -5.52536655898301       -1.29688213715069       -1.64363238070370
C           -5.99482632455075       -0.44897187160138       -2.66066636244807
C           -4.26221927414871       -1.71198499766718        0.28484881699907
O           -4.75578305810572       -2.97591304567231        0.15383081216488
C           -4.43438092438421       -3.93042477049975        1.13252121191570
C           -3.40689705690435       -1.28070353799836        1.28154559894200
C           -2.96547855482859        0.03734970712930        1.31650090784818
C           -2.58987671012015        2.89034596603759       -0.94392947814510
C           -1.20810719592013        0.01330406659658       -2.23079658942304
C           -0.02772964155830        0.28653041519517       -1.67867574800247
N            0.58839901530480       -0.38970963389236       -0.65396583640605
C            1.97900967955212       -0.13980392850915       -0.38316122406072
C            2.94861683192706       -0.88827698025868       -1.32449460937617
C            4.36790963559589       -0.66856318367555       -0.89049031757406
C            5.01822805362698        0.51964552120101       -1.16783562792596
C            6.31287903639957        0.74535584095582       -0.72008320474394
C            6.98000576063994       -0.21947321904468        0.01294766948510
O            8.24521623039752       -0.10863284288024        0.50702459087587
C            8.95829244248828        1.07972488829770        0.28009885272295
C            6.32975148640468       -1.44274805188371        0.29313891299724
O            7.06750365733767       -2.33964205736939        1.00584775328848
C            6.51297180085686       -3.59702769486007        1.29443162953366
C            5.03705855242420       -1.64504640703739       -0.15420502248435
C            0.02535988275282       -1.63079061249217       -0.18461835402115
C           -4.10623467851636        3.25193689616260        0.99742927610200
C           -4.54567218943353        2.76994929603178        2.37616916607659
C           -3.75185412819496        4.73674830591597        1.04679376420250
H           -4.57227080085159        1.22667929183532       -1.38687426149437
H           -6.60611158789584        0.36615836157736       -2.25832266472371
H           -6.61326493244509       -1.07830125551787       -3.29952879887064
H           -5.17367977775368       -0.03085023910318       -3.25229310453760
H           -4.75800686296264       -3.61413577292326        2.12995401487387
H           -4.97738002576115       -4.83084648429727        0.84832157646941
H           -3.36065927313161       -4.14799622635242        1.15176812139789
H           -3.07580194063394       -1.96009602732996        2.05159172292233
H           -2.31037818884662        0.34572404958407        2.11656769121520
H           -3.35544917724798        3.26105172293004       -1.59784494669800
H           -1.57982240363108        2.85746990671817       -1.30327340257661
H           -1.80698228412092       -0.83601811444203       -1.95948982520948
H           -1.62790544898184        0.67852679426258       -2.96397859339849
H           -0.83664756913341        1.90586259801571        0.73994583886414
H            0.52751175194356        1.15729322910789       -2.00820755051877
H            2.18992349911050       -0.43585400105779        0.65009180350447
H            2.16704622026264        0.93525290424237       -0.46585860954200
H            2.79951946558249       -0.52158527555499       -2.34227286205142
H            2.70905724075074       -1.95265698880079       -1.30487545398451
H            4.52089821048259        1.28506331881426       -1.74492627754290
H            6.79217907488484        1.68282035087786       -0.95474899941512
H            8.45248182486175        1.94736834849056        0.71739722573759
H            9.12385444440418        1.25679974496440       -0.78808740482665
H            9.91912404509786        0.93866586590361        0.77332953490822
H            7.28552575369360       -4.13554872470704        1.84170128187886
H            5.61939555753746       -3.51338273894457        1.92260159069325
H            6.26513946716673       -4.15066271335444        0.38228155867433
H            4.52993304808883       -2.57425415720480        0.05705333202470
H            0.08975011991097       -2.43561976113942       -0.92815826146551
H           -1.02557810780274       -1.47298393868408        0.06352610497989
H            0.55156040092162       -1.94437801280686        0.71725362418305
H           -4.94486587429269        3.11815960475332        0.30316375201218
H           -3.72717089236159        2.87252342354995        3.08146287195593
H           -4.86076658224156        1.72942284322334        2.34616426239950
H           -5.38252530755419        3.37251054925851        2.72310342679954
H           -2.97316446913015        4.90595281326170        1.78342900051352
H           -3.39416764496807        5.07926995227320        0.07783630743731
H           -4.62818022198868        5.31951881827582        1.32152807914599
H           -0.60726685874453        3.13962941086516        2.70142639738267
