72
 energy: 1.937526322544 xtb: 6.6.1 (8d0f1dd)
N           -1.51003732513545        2.88145476375157        2.24747085956397
C           -1.56731327598770        2.24750968016457        1.16605064751221
C           -2.78498550891340        2.13721370399212        0.28796659540036
C           -3.34250299426062        0.72785441615262        0.35439274432495
C           -4.29424571556106        0.32620479489758       -0.58410301398543
C           -4.80406849318219       -0.95622812788318       -0.57739199165896
O           -5.73057939855579       -1.43708102893472       -1.45615177044938
C           -6.27485860820518       -0.56171604787336       -2.40831655985795
C           -4.36180185024766       -1.87842450281574        0.39705279785336
O           -4.92076649026575       -3.11889447555010        0.32419879082007
C           -4.59532029843600       -4.05181674820991        1.32247354433345
C           -3.42263660102668       -1.47399718148486        1.32501370040763
C           -2.91536917630952       -0.18084763030592        1.29850991664347
C           -2.27816757969292        2.28941820612426       -1.16999987404552
C           -1.42275001655616        0.97307406694747       -1.77778781286777
C           -0.04677271928328        0.91433497805031       -1.19906135840769
N            0.60434689258313       -0.16906659541081       -0.59694066431831
C            1.98888874064062       -0.07029019040168       -0.23750776197720
C            2.94354990197740       -0.65142776867556       -1.30207315923585
C            4.36477242050093       -0.50674574022221       -0.86198054821712
C            5.06013085293934        0.66631030147719       -1.08621334463463
C            6.36481207890608        0.81224156508792       -0.64119204340259
C            6.99387368569466       -0.21235375945771        0.04304452768117
O            8.27183930362322       -0.17628678429716        0.52404898853266
C            9.03658413827444        0.97839116765974        0.30767970121379
C            6.29206558722671       -1.41412794495812        0.28391449491373
O            6.99076245624485       -2.37269808288123        0.95497879155639
C            6.37696049286126       -3.61074568197921        1.19723356964094
C            4.99057037347012       -1.54038389471405       -0.16431094674558
C           -0.03691061925681       -1.43793402458125       -0.48395977154060
C           -3.92854475251463        3.12320070244434        0.68690843876285
C           -4.50561076698716        2.77218864658965        2.06105335389984
C           -3.49377418245776        4.58650349517185        0.68749582470217
H           -4.63110251189131        1.02678646890739       -1.33063201270356
H           -6.77472301405485        0.29255818635647       -1.93873409303615
H           -7.00801392850304       -1.15173835728826       -2.95637835820772
H           -5.51445061861319       -0.19667682253894       -3.10598788884357
H           -4.84462861119810       -3.68200914073999        2.32283393508623
H           -5.19589837187237       -4.93228165248170        1.10199040090856
H           -3.53476010524377       -4.32439800497475        1.29495510796634
H           -3.07081647997520       -2.15207425475999        2.08524338045513
H           -2.19104509627485        0.11578793115380        2.04013521587983
H           -3.11059291812872        2.58052384998839       -1.81195841405726
H           -1.55497324665063        3.10839259515489       -1.22900738176666
H           -1.87911008876172       -0.02277061193655       -1.70659677469060
H           -1.26424318385668        1.20972600869896       -2.83783895858583
H           -0.71943707765028        1.72122708740404        0.69738050798402
H            0.61025708446238        1.77153603556330       -1.32037046681716
H            2.16686939984910       -0.58598097396201        0.71318854154933
H            2.24768759646403        0.97920741245707       -0.08127662380246
H            2.77290489947956       -0.11484945883299       -2.23482816808457
H            2.69256782588737       -1.70097957451142       -1.45733369039519
H            4.58955045926348        1.47838555012102       -1.61966746601276
H            6.88243388446354        1.73632596494024       -0.84200101675957
H            8.58953045604447        1.85558434835803        0.78672050996685
H            9.17641747621976        1.17733232025830       -0.76022131312651
H           10.00391149894003        0.77150495266610        0.76442691325300
H            7.12590950760028       -4.20941324919558        1.71422212284470
H            5.49404158472644       -3.50883468398607        1.83740701868390
H            6.09529985193015       -4.11226230627964        0.26537771494231
H            4.44292078973858       -2.45441365932504        0.01160791645772
H           -0.13760797415508       -1.94743692735483       -1.44848565242180
H           -1.02879058545082       -1.31853362524978       -0.03906386229814
H            0.56170024855702       -2.07316944968001        0.17238658907582
H           -4.72917757143183        3.00506213810471       -0.05539507620367
H           -3.74295790689395        2.89020858056450        2.82586730783710
H           -4.86930016713874        1.74756653777501        2.08232564662050
H           -5.33817884713507        3.43605727337497        2.28901869799942
H           -2.70973938759258        4.74213696936690        1.42241313026722
H           -3.13731188212726        4.89580022004474       -0.28998749768474
H           -4.33929021118499        5.21921800453692        0.95298153158817
H           -0.60228459922818        2.89548466354375        2.70810949611809
