72
 energy: -5.769769110199 xtb: 6.6.1 (8d0f1dd)
N           -1.49759494267720        2.80484318715184        2.24010160357261
C           -1.55375849935074        2.18098719721321        1.15215273202561
C           -2.75842067977002        2.08201854065417        0.25796285300930
C           -3.32455652376631        0.67309762210150        0.33570414060312
C           -4.30018763435743        0.27217297264085       -0.57893138015724
C           -4.83431525675666       -1.00057664381178       -0.54595011912338
O           -5.79011405637919       -1.47229144620991       -1.39497573330333
C           -6.35594873232071       -0.59334665386611       -2.33240739461813
C           -4.38675819336769       -1.92131128817470        0.42794850218812
O           -4.96885826250850       -3.15170898155996        0.38161167985302
C           -4.64101068363905       -4.08447419343872        1.37916918969930
C           -3.42303583133458       -1.52105363432777        1.33246929648751
C           -2.89642199041272       -0.23541534819280        1.28378138645741
C           -2.22457988425548        2.28121040988400       -1.18445142620718
C           -1.31987816386878        1.11157105970472       -1.70897316396969
C           -0.01460312809468        1.06240952965395       -0.99413816440129
N            0.62419580046042       -0.08668138696034       -0.57103797317783
C            1.99836965586229       -0.04466472007224       -0.18278432016881
C            2.93760444945972       -0.57709131419435       -1.28615726021300
C            4.36091075548219       -0.45722001687683       -0.84585626478298
C            5.07046509535161        0.71005450006215       -1.05688290071053
C            6.37907815551728        0.83267159583316       -0.61541375329190
C            6.99573215863426       -0.20988154314062        0.05271604618394
O            8.27435522420668       -0.19971777562347        0.52703532284921
C            9.05807327360920        0.94493376713587        0.31568804415678
C            6.27694276408854       -1.40484475888305        0.28159425984376
O            6.96521327029242       -2.37951776845977        0.93907740567426
C            6.33650276972999       -3.61335232631875        1.16765927087012
C            4.97326976236792       -1.50869599319686       -0.16304392516941
C           -0.04640593929380       -1.34912444150599       -0.57556531957694
C           -3.88761892891159        3.09138412293194        0.61690382494871
C           -4.49804211742720        2.77467626422955        1.98256878749948
C           -3.42601465639483        4.54711377093667        0.59428394083012
H           -4.64855547159680        0.97169117460750       -1.32125554026594
H           -6.82446982243657        0.27023168796372       -1.84828821518519
H           -7.11930446608046       -1.17416566134869       -2.84773470495941
H           -5.61710771916253       -0.24485647566768       -3.06191018031546
H           -4.87005109673355       -3.70477037483542        2.38058996440614
H           -5.25997225259378       -4.95626358580244        1.17416348231334
H           -3.58546404640386       -4.37409325242763        1.33476916292803
H           -3.07107533065188       -2.19751315731108        2.09481045939218
H           -2.16062495314083        0.05306447945612        2.01823480557692
H           -3.06074725648283        2.44845901081300       -1.86221322407712
H           -1.62053349849255        3.19483443165077       -1.21146748462379
H           -1.82779898757776        0.14664268779790       -1.65677980864025
H           -1.09094909439117        1.32297874988601       -2.76131855259715
H           -0.69511261767550        1.67719678615246        0.65567756911538
H            0.63313095374423        1.92247213830170       -1.07044618015555
H            2.13749565869309       -0.63898575365703        0.72681159797080
H            2.28396815464873        0.98432601017314        0.04732104251257
H            2.76700344593531        0.00743638223385       -2.19094620127925
H            2.68383080387583       -1.61719118614909       -1.49394102784669
H            4.61037300334275        1.53441829020823       -1.58102646631551
H            6.90994136638052        1.75121803801679       -0.80678383738436
H            8.63069584075047        1.82567299114032        0.80683872954823
H            9.19241734721096        1.15261202128137       -0.75133904497853
H           10.02506836423719        0.71793198426511        0.76215749522872
H            7.07949781573734       -4.22763505363047        1.67426564471333
H            5.45692584968935       -3.50829934532312        1.81219065179578
H            6.04543583546516       -4.09970953776395        0.23042563561775
H            4.41455262432088       -2.41779296640276        0.00067652822130
H           -0.19500100778984       -1.73243154797904       -1.58977859711430
H           -1.02066930434042       -1.26621877523472       -0.08526397925399
H            0.56213261300769       -2.06288353359536       -0.02361969980833
H           -4.67197629242562        2.97252871719269       -0.14069547474616
H           -3.75212497805729        2.89878589707946        2.76175188485390
H           -4.87241505422998        1.75430303359624        2.01400101088443
H           -5.32706847131124        3.45135125762740        2.17898275717851
H           -2.63581023101299        4.70438885029208        1.32236486596150
H           -3.07150867653272        4.84171231492490       -0.38969492771466
H           -4.26125294743179        5.19384210269952        0.85525115180071
H           -0.60019933544477        2.81017272362082        2.72233346273329
