72
 energy: 27.213148483064 xtb: 6.6.1 (8d0f1dd)
N           -1.52215933657101        3.15401464312406        2.24745209450256
C           -1.63008393244491        2.48054772230082        1.19640824053108
C           -2.90661923273700        2.38744903304527        0.40267616780525
C           -3.38424179577617        0.93046360199494        0.38104051579372
C           -4.25899577408427        0.51657163130751       -0.62279335227545
C           -4.69745708416536       -0.79225085717394       -0.68942739400962
O           -5.51764286572443       -1.29978092597306       -1.65123441969678
C           -5.98806100518246       -0.44757047964762       -2.66327955904477
C           -4.26879032835783       -1.71928551737846        0.28853753450856
O           -4.74523058180685       -2.98665593520282        0.13923548485714
C           -4.43203670229597       -3.93611892706278        1.12613533198924
C           -3.41495961275258       -1.29708680267592        1.29064404847976
C           -2.97450503612860        0.02109683706938        1.33510807116441
C           -2.56493621784853        2.81448803936203       -0.97285700258788
C           -1.28520209659328        0.04262372067143       -2.15842831079133
C           -0.04150346342911        0.22868343722719       -1.71668137495980
N            0.56169190150436       -0.35402243974501       -0.62000977162915
C            1.96888993654275       -0.13047708995678       -0.39013753623138
C            2.93587561221936       -0.89939507772482       -1.32392534775246
C            4.35856407433322       -0.67667283310728       -0.88774290657683
C            5.01080668876138        0.50981690062835       -1.17079250588438
C            6.30676581396110        0.73715756213677       -0.72818992530549
C            6.97584175946424       -0.22034512287682        0.01069787404056
O            8.24100799895553       -0.10404725514081        0.50560646067610
C            8.95371767429467        1.08542103627993        0.27827970621209
C            6.32836785341270       -1.44420628510969        0.29131422095189
O            7.06946048894987       -2.33685150754669        1.00756556841088
C            6.51881566279842       -3.59607877926798        1.29822753033181
C            5.03562818438504       -1.65049019175042       -0.15447364722212
C            0.02075152939051       -1.61064406338872       -0.15676476691182
C           -4.07907935754292        3.24248573439934        0.96542179092801
C           -4.52537459092717        2.76565161466183        2.34608788625014
C           -3.73175954697793        4.72700357333026        1.02121085341757
H           -4.57821153562800        1.22981704472828       -1.36381120195254
H           -6.60440088568272        0.36297591085654       -2.25865007069763
H           -6.60125498524279       -1.07465542170609       -3.30940206947250
H           -5.16451269380835       -0.02559218620369       -3.24814423819905
H           -4.75837413808397       -3.61353144376887        2.11966614415857
H           -4.97197580059943       -4.83850643208720        0.84512654034269
H           -3.35926227150289       -4.15235594949750        1.15357057823159
H           -3.07969570936463       -1.98199174312692        2.05482832492303
H           -2.31028906187421        0.32611298523634        2.12874863951909
H           -3.31522480203053        3.18681923350391       -1.63297232280488
H           -1.54992064540417        2.92334565123952       -1.28550295882099
H           -1.90383117609537       -0.79248852712184       -1.88938151937777
H           -1.65565086711045        0.67136046419092       -2.94597944791020
H           -0.81418855541690        1.89897298246151        0.74244077565033
H            0.51857695441420        1.09268349681901       -2.07431890152015
H            2.19284053802588       -0.41701960347184        0.64300816532245
H            2.16463116329408        0.94005325418739       -0.50162792744004
H            2.80226127974447       -0.54952696568245       -2.35032919758607
H            2.70368879479036       -1.96489518659142       -1.29365907155634
H            4.51851055743862        1.27801308006314       -1.74822926672016
H            6.78419202981264        1.67570081160781       -0.96286831283372
H            8.44735813492627        1.95202577894111        0.71515467295039
H            9.12229615264659        1.26029845021178       -0.78943996195746
H            9.91530900269801        0.94327854034773        0.77232618970656
H            7.29209170965812       -4.13186778890500        1.84701697757551
H            5.62545364606296       -3.51388442756209        1.92670680945988
H            6.27311407984928       -4.15229583793472        0.38698331775501
H            4.53597002193733       -2.58323761039659        0.05868277163432
H            0.13256165252752       -2.41886340645762       -0.88763945666537
H           -1.03715356558459       -1.47711958515685        0.06258001906370
H            0.52942344577109       -1.90659632912386        0.76166791706559
H           -4.91390309580742        3.10622184274093        0.26618079334876
H           -3.71556994130908        2.87046781711770        3.06112614753099
H           -4.84977979668413        1.72796413908538        2.32384307309228
H           -5.36041674832650        3.37441303440070        2.68247989279911
H           -2.96266228255611        4.89688902435729        1.76735168420400
H           -3.37797797852674        5.09368117874549        0.06113680435586
H           -4.61683509130267        5.29404977125581        1.30199965477852
H           -0.60312187491635        3.16030077322881        2.68362451643389
