72
 energy: 28.567596397655 xtb: 6.6.1 (8d0f1dd)
N           -1.54101404431224        3.08607208473529        2.26405709687794
C           -1.62754372646565        2.41809061695562        1.20670272996542
C           -2.87642931701558        2.31611087664816        0.37798554913485
C           -3.38151725576417        0.87239595216192        0.38172337094498
C           -4.27490687029808        0.46370034397391       -0.60725108377555
C           -4.72776525039483       -0.84002681747670       -0.65770265196187
O           -5.58109664311768       -1.33885960622042       -1.59643846676514
C           -6.07151114849752       -0.47998254727437       -2.59198564761935
C           -4.29548714422992       -1.76521994922572        0.31935629020122
O           -4.79836941733784       -3.02424910230968        0.19242146667563
C           -4.47950986982318       -3.96807895589008        1.18236585818173
C           -3.41854392896732       -1.34889917477009        1.30283812988483
C           -2.96228274860369       -0.03687283504227        1.32988015561288
C           -2.49536147836743        2.68322922781123       -1.00746568273916
C           -1.33324960813038        0.27005524289645       -2.05931729898925
C           -0.07408266617445        0.41614816927578       -1.62011974105777
N            0.56608579008555       -0.36856777167820       -0.69979426037552
C            1.95412194749717       -0.12494697651378       -0.38354525297083
C            2.94788316218368       -0.83258382845172       -1.32719357488751
C            4.36838620987816       -0.62890553328073       -0.88532524053357
C            5.02971705644046        0.55465483871458       -1.15136112954065
C            6.32676608929660        0.75907359525894       -0.70605079286388
C            6.98500041797322       -0.22048766812139        0.01346988651547
O            8.24964531865120       -0.12194979668679        0.50909688769362
C            8.97900153735256        1.05613760552596        0.28618674162383
C            6.32454923535071       -1.43884860736745        0.28921971355217
O            7.05098160576628       -2.35009063516955        0.99423895074354
C            6.47914236735845       -3.60191030558003        1.27092961770934
C            5.02830748668159       -1.61935428175330       -0.15909182518347
C           -0.00598820475236       -1.60674651634185       -0.25228216104413
C           -4.04473433417605        3.21068676722465        0.88768098597482
C           -4.52492101837819        2.76817959134302        2.26721280075883
C           -3.66706697968221        4.68745893310065        0.92537717984359
H           -4.59149943404568        1.17158173747968       -1.35443260053962
H           -6.65323260139972        0.34563568400258       -2.16698194805048
H           -6.72212372382412       -1.09505418899268       -3.21249340104999
H           -5.26336087071511       -0.07637112933819       -3.20957397815911
H           -4.78084522569467       -3.63126692528777        2.17922711131554
H           -5.03567455082902       -4.86584190682503        0.91994772602581
H           -3.40980997169797       -4.20050064994625        1.19295378434418
H           -3.07506446293660       -2.03223617179494        2.06374150970307
H           -2.27423798272918        0.26873161285317        2.10195422745228
H           -3.24153601622328        3.03022112087888       -1.67692612271062
H           -1.49298727983540        2.94934881393257       -1.26269554575416
H           -1.94286699113591       -0.58648552913801       -1.81707797722587
H           -1.64569862784436        0.86944570823937       -2.90228597375620
H           -0.78993183301197        1.84929481572190        0.77631775065680
H            0.54483299111049        1.29015708208048       -1.88783029597483
H            2.15148507454840       -0.44494840109353        0.64131693094938
H            2.16048804941194        0.94683702055193       -0.40313090230327
H            2.79847223890367       -0.42568959170769       -2.32752751126856
H            2.71125859289379       -1.89652398501481       -1.34868300958072
H            4.53973384393136        1.33563453082123       -1.71297605922355
H            6.81308152361654        1.69524055205709       -0.92930121275754
H            8.48860195462810        1.92514661940649        0.73546097590533
H            9.13810003623166        1.23678491071256       -0.78180589727753
H            9.94398773417339        0.89562971430384        0.76873417560491
H            7.24451292301160       -4.15754901190236        1.81159732065159
H            5.58858332191787       -3.51200459846866        1.90213905862250
H            6.22207665709516       -4.14183811473615        0.35354292725787
H            4.51101543591183       -2.54505054819552        0.04485656071418
H            0.03150422572329       -2.40176260643166       -1.00359312060474
H           -1.04540810456632       -1.45731622900664        0.04299079706810
H            0.54021814262820       -1.94714410145747        0.63262717552213
H           -4.86720541396837        3.08042197891518        0.17212580512371
H           -3.72501149762161        2.87529280809902        2.99416599988101
H           -4.85859033207452        1.73347350267748        2.25582828404176
H           -5.35955254059740        3.39363025551856        2.57293323583396
H           -2.89353937171357        4.84912339850432        1.66911728102354
H           -3.30993314924524        5.03451123685607       -0.03990878026118
H           -4.53864835011269        5.27728501905734        1.20109223412592
H           -0.61992599516644        3.10969218112782        2.69745238927996
