72
 energy: -1.041081687207 xtb: 6.6.1 (8d0f1dd)
N           -1.50667854389781        2.86199045735996        2.24560404028598
C           -1.56313677901327        2.23030685118865        1.16271378167433
C           -2.77808087272135        2.12257270481042        0.28041642934887
C           -3.33828675470894        0.71397084686689        0.35018481756287
C           -4.29585049695917        0.31267855346153       -0.58261210733820
C           -4.81177166009419       -0.96735961753626       -0.56945637638812
O           -5.74554905684348       -1.44601310154516       -1.44102964056019
C           -6.29522593231719       -0.56962890376482       -2.38940742270725
C           -4.36821513032954       -1.88920257869630        0.40481693166322
O           -4.93294302561093       -3.12723420695701        0.33825081413482
C           -4.60685612900293       -4.06007103384290        1.33637789875487
C           -3.42289898117151       -1.48587431756615        1.32702272876526
C           -2.91079263564328       -0.19460058626229        1.29508339880384
C           -2.26572815061819        2.28254429922648       -1.17546010220451
C           -1.40091005396361        1.00965699391890       -1.76193494354404
C           -0.03948474546642        0.95387035217246       -1.14826109006294
N            0.60860617643815       -0.14782136654066       -0.58749669686905
C            1.99134848806169       -0.06368545925682       -0.22301268077302
C            2.94199879708069       -0.63281442827022       -1.29786692224351
C            4.36378403393636       -0.49433888088402       -0.85795885534951
C            5.06274540961157        0.67730119652279       -1.07875189146152
C            6.36843151158390        0.81734261183289       -0.63460943170503
C            6.99457093896928       -0.21174996720838        0.04555807941932
O            8.27295238323717       -0.18218539999245        0.52497444820772
C            9.04213200334718        0.97012199295923        0.30967924132471
C            6.28847817171287       -1.41179215931954        0.28328480572628
O            6.98456329987359       -2.37448690434845        0.95089020797823
C            6.36692596902812       -3.61141351488274        1.18965735350137
C            4.98640404975671       -1.53247746739394       -0.16405015393833
C           -0.03964818846381       -1.41606645419439       -0.50639378052468
C           -3.91799235417457        3.11503548102541        0.66921417615584
C           -4.50370281168593        2.77285688799898        2.04140503244682
C           -3.47667332972944        4.57656549727894        0.66404594085260
H           -4.63536729822958        1.01295608492217       -1.32825439288454
H           -6.78720318957071        0.28706549933922       -1.91608288047262
H           -7.03606707527205       -1.15736297867599       -2.92937141139011
H           -5.54011254361845       -0.20870478629238       -3.09509940844849
H           -4.85103730719427       -3.68775265622103        2.33705797536255
H           -5.21208473858857       -4.93835954945032        1.11968916007780
H           -3.54748822361645       -4.33684115087147        1.30453498435690
H           -3.07092008767485       -2.16351277466460        2.08768674798859
H           -2.18329878429482        0.10015911779181        2.03453299708216
H           -3.09991306495019        2.54643311077445       -1.82539718812634
H           -1.57100000151798        3.12843807664758       -1.22395428694560
H           -1.86687973245985        0.01960848233243       -1.69531268660070
H           -1.22206359151424        1.23872681543392       -2.82051103446931
H           -0.71300518233419        1.70974737382272        0.68738981418407
H            0.61544527540741        1.81152409055566       -1.25836311154836
H            2.16077122657506       -0.59907556681096        0.71833597313981
H            2.25666862062705        0.98136125103346       -0.04886998977604
H            2.77118051713084       -0.08417344559608       -2.22376544695507
H            2.69036540424329       -1.68019853517493       -1.46647016908609
H            4.59462047354861        1.49250732199249       -1.60966470440898
H            6.88932761803243        1.74006452126266       -0.83312793433581
H            8.59987789179449        1.84816701238641        0.79177605761754
H            9.18046905788268        1.17128723900575       -0.75802881334668
H           10.00945705596629        0.75832797656343        0.76381197277749
H            7.11434135315427       -4.21410511054289        1.70404420132464
H            5.48484489672550       -3.50861763660457        1.83089507672984
H            6.08285325077199       -4.10904969142015        0.25641012012047
H            4.43602772077468       -2.44532367122256        0.00887530512861
H           -0.15200319767768       -1.89445263369738       -1.48493591330674
H           -1.02741234543430       -1.30525191393885       -0.05017028817091
H            0.56173271618664       -2.07205139271020        0.12461188629844
H           -4.71481977035045        2.99702230796689       -0.07681941797034
H           -3.74511308653966        2.89232142824753        2.80978929800665
H           -4.87010568500289        1.74929984505066        2.06529476838421
H           -5.33548625427999        3.43999877100431        2.26155147813291
H           -2.69116943589454        4.73253726370263        1.39734499276878
H           -3.12064743095001        4.88199364598688       -0.31505455838823
H           -4.31955592845885        5.21300818394491        0.92841289857451
H           -0.60161487685047        2.87491628245174        2.71191475302569
