72
 energy: 29.178948748819 xtb: 6.6.1 (8d0f1dd)
N           -1.53135890831497        2.97979155894670        2.26369655444174
C           -1.59816323898953        2.33342448703476        1.19102344263656
C           -2.82950715543735        2.22552842714882        0.33752844913334
C           -3.36216466406690        0.80062982004796        0.37064189112171
C           -4.28429158326239        0.39495068352214       -0.59400382153439
C           -4.76449861495248       -0.89877795256259       -0.61696582037739
O           -5.65641393812828       -1.38921412646506       -1.52810503573120
C           -6.17357867568391       -0.52090652193356       -2.50073281876305
C           -4.32904952270339       -1.82225605149059        0.35887354328150
O           -4.86059030158981       -3.07373251955803        0.25663123463473
C           -4.53840396127814       -4.01028982156823        1.25187020972936
C           -3.42065001385969       -1.41240030078563        1.31501481050378
C           -2.93893973381529       -0.10933119459785        1.31497287888266
C           -2.39074925222821        2.46365274314369       -1.08249987247599
C           -1.37487812575765        0.61846910800788       -1.91566434347032
C           -0.06564371367300        0.65940801467953       -1.44112159113890
N            0.59688910954372       -0.28720229497790       -0.68159535419746
C            1.97746254580231       -0.10086940618464       -0.31298090437894
C            2.95050425716802       -0.74274251444747       -1.31879371744723
C            4.37013774193842       -0.56769315642946       -0.87681502685249
C            5.04671896791127        0.61122115974876       -1.12058973169661
C            6.34730662067627        0.78642713712728       -0.67385679587400
C            6.99144618498268       -0.21602409143651        0.02841461465907
O            8.26267450862954       -0.14834901059543        0.51668498494048
C            9.00890652409460        1.01795554785006        0.29717580914902
C            6.30988943431897       -1.42621605111381        0.28774722911564
O            7.02183959290410       -2.36273742771907        0.97498751569451
C            6.42826569510928       -3.60714045525703        1.23458133757637
C            5.01077744425438       -1.57943827650673       -0.16258085483758
C           -0.02054085942439       -1.53918458035769       -0.36957622075794
C           -3.98824617818923        3.16752600240098        0.78839966642419
C           -4.51760708989600        2.77033371532419        2.16510297816331
C           -3.58036210416549        4.63707122215646        0.80631867636896
H           -4.60830234641117        1.09797333609892       -1.34311691135716
H           -6.71350191089523        0.32025017494848       -2.05178361038106
H           -6.86735187781194       -1.12276335439461       -3.08668983039589
H           -5.38837253863713       -0.13629341548809       -3.15865500859773
H           -4.81274819102941       -3.65615245659968        2.25114694456059
H           -5.11636479550917       -4.90031385617089        1.01097953772233
H           -3.47260405878244       -4.26301383437741        1.24401866694826
H           -3.07232712037130       -2.09286750976427        2.07529241199650
H           -2.23159101994255        0.19349517056620        2.07047460479427
H           -3.17241458122769        2.80084371908083       -1.73466223013120
H           -1.47721010379134        3.00771714067457       -1.23601503652433
H           -1.91719979569362       -0.30832912793812       -1.77145358336896
H           -1.46660408618398        1.06129141312901       -2.89978348935232
H           -0.75490161608921        1.78086819280451        0.74856611315730
H            0.57679392737325        1.54009616302455       -1.62387838049799
H            2.17126870695324       -0.51620562569978        0.67864959138955
H            2.20086446963680        0.96572287022784       -0.24348782287540
H            2.78537827001610       -0.26951229403108       -2.28610525984194
H            2.70361096153238       -1.80106013872668       -1.40750487593136
H            4.56456378148174        1.40780553464992       -1.66679786640569
H            6.84831567376825        1.71712591294907       -0.88585570834653
H            8.53945007741080        1.89078775084154        0.76146033217544
H            9.15745842778650        1.20692271131129       -0.77103933308029
H            9.97568456402498        0.83444382726361        0.76674494252481
H            7.18542154080498       -4.18494506723694        1.76368189340306
H            5.54163279877294       -3.51052995136582        1.87015920177944
H            6.15868426589493       -4.12756816182071        0.30973376191543
H            4.47690125071834       -2.49902585333322        0.02787315305074
H           -0.06721145351403       -2.19831349052518       -1.24254071555221
H           -1.03082484969776       -1.38205644429453        0.01378086576761
H            0.55598216562206       -2.05213424733164        0.41024061370495
H           -4.79851535967860        3.04341742380042        0.05677051008542
H           -3.73391191679153        2.88160063567310        2.90972016349573
H           -4.86486916225369        1.73980785693752        2.16896137284694
H           -5.35218497001763        3.41590202643149        2.43133415799096
H           -2.80144849309840        4.79349099173824        1.54616675386273
H           -3.22217808931384        4.96253368930035       -0.16514474193858
H           -4.43818009475188        5.25087084763461        1.07583956537500
H           -0.61219228967411        3.00382467919968        2.69894277119741
