72
 energy: 24.148247899534 xtb: 6.6.1 (8d0f1dd)
N           -1.52649381861828        2.95962664103626        2.25979888164203
C           -1.59119080250406        2.31610533965553        1.18515583213515
C           -2.81918258902274        2.20464271384205        0.32602332611001
C           -3.35903711744296        0.78542975441986        0.36881282860611
C           -4.28699872060210        0.38094861558532       -0.59125700700965
C           -4.77268202485064       -0.91062559177590       -0.60885150177351
O           -5.67135318210192       -1.39942990903652       -1.51403963929370
C           -6.19392710091300       -0.52948319279517       -2.48237110386293
C           -4.33584171315921       -1.83387362601408        0.36663196451029
O           -4.87263426331710       -3.08348916219387        0.26990762832922
C           -4.54973407436881       -4.01875029663385        1.26628806747007
C           -3.42128455946412       -1.42528362163307        1.31716452233056
C           -2.93439093966897       -0.12427560679474        1.31201271118441
C           -2.35738136467203        2.39597128138060       -1.11095532851212
C           -1.41104855448090        0.72338401898446       -1.87108559179066
C           -0.06381512539581        0.71788174580401       -1.39582668433120
N            0.59742992030771       -0.26272969061135       -0.66241887559011
C            1.98014496949136       -0.09519672666330       -0.29831146312930
C            2.94961955112557       -0.72491701936800       -1.31635566426542
C            4.36935193448378       -0.55571245810656       -0.87446994703070
C            5.04967652386103        0.62211628395046       -1.11420310756195
C            6.35101313076492        0.79148751168187       -0.66753489478435
C            6.99182994681694       -0.21537022143401        0.03149322245242
O            8.26478367710078       -0.15388986963972        0.51844459044530
C            9.01449981355787        1.01002534206687        0.29943213511801
C            6.30644833220152       -1.42392624097465        0.28700296136970
O            7.01570263191891       -2.36495851574482        0.97114200209071
C            6.41805522249278       -3.60805067051894        1.22741285228982
C            5.00693351618040       -1.57178843429093       -0.16332706571859
C           -0.02385460473317       -1.52040388386236       -0.39324163224885
C           -3.97493076809331        3.15812895554463        0.76552604890993
C           -4.51483527576253        2.77063799468978        2.14307047236339
C           -3.56290769785079        4.62683122270007        0.78208390719420
H           -4.61329758949001        1.08327702861350       -1.34026940980675
H           -6.72578613610494        0.31443620996013       -2.02907060368723
H           -6.89568046187555       -1.12896820268210       -3.06110082409151
H           -5.41340405625763       -0.14865386542390       -3.14810459111965
H           -4.81906929129887       -3.66116065131229        2.26578288890022
H           -5.13205707452494       -4.90708652605097        1.02971337865259
H           -3.48486973284756       -4.27534368376901        1.25481545352600
H           -3.07187532309337       -2.10509846779867        2.07719840219860
H           -2.22356023721320        0.17798759732079        2.06430816454017
H           -3.15630896989938        2.74503188623937       -1.74986666063884
H           -1.49356641923544        3.03077522686379       -1.23673374143141
H           -1.91362325834932       -0.23796289926087       -1.75825154357375
H           -1.42608316835490        1.09201766244152       -2.89387911935266
H           -0.74777894073216        1.76818953769657        0.73860298661985
H            0.58413295000240        1.59184179113161       -1.56068133271516
H            2.17421738355937       -0.53047062887600        0.68582636882796
H            2.21062266533150        0.96868092570540       -0.21175830730999
H            2.78284402936543       -0.23860255206949       -2.27672467065535
H            2.70172866090970       -1.78178408000450       -1.41806577884324
H            4.56986194072782        1.42174370303381       -1.65797458868737
H            6.85543997145545        1.72085058489652       -0.87735269126755
H            8.54930063922175        1.88374001488699        0.76653645250510
H            9.16125196636166        1.20072395661619       -0.76879047868239
H            9.98139111989654        0.82189001463603        0.76658830134036
H            7.17355612501295       -4.18996858247888        1.75429711613961
H            5.53209984345362       -3.51030545775135        1.86380272699387
H            6.14616596770356       -4.12489982308455        0.30120861376317
H            4.47022964931081       -2.49028546367654        0.02421400200816
H           -0.08113637573449       -2.15080895494780       -1.28733325174370
H           -1.03045944597486       -1.36901011160016        0.00326396548538
H            0.55821156212180       -2.06028694298324        0.36271148999079
H           -4.78498619519293        3.03596293947148        0.03327803299111
H           -3.73574491522085        2.88324277129333        2.89237287502786
H           -4.86615246697019        1.74145259836499        2.15137564546899
H           -5.34920075033478        3.42030125299232        2.40173100366928
H           -2.78335701284232        4.78254885398915        1.52152648459896
H           -3.20501805580342        4.94975154915087       -0.19014788134906
H           -4.41843638614761        5.24444419595567        1.05114847957379
H           -0.60909655008828        2.98159780898505        2.69899555824783
