72
 energy: 26.348263594372 xtb: 6.6.1 (8d0f1dd)
N           -1.52717838846664        3.14747780227294        2.26000500848739
C           -1.63818364194280        2.47851977939542        1.20617448221653
C           -2.91593280911906        2.40058768903378        0.41212370768757
C           -3.38102015741492        0.93981318250893        0.37386964274038
C           -4.25056173513264        0.52389550614111       -0.63309982046997
C           -4.69008815022501       -0.78439566731309       -0.69834922657924
O           -5.51311846353473       -1.29062935821201       -1.65881112178821
C           -5.96752864035552       -0.43907982802789       -2.68052051702446
C           -4.26438546686304       -1.71008955999934        0.28196354817524
O           -4.74599401683985       -2.97669853256722        0.13716927216089
C           -4.42215379334184       -3.92954618737105        1.11521127938764
C           -3.41424016296977       -1.28608581370084        1.28674568909256
C           -2.97431702751794        0.03220103869929        1.33100603295625
C           -2.57704007769738        2.84529529801369       -0.95801591181931
C           -1.25236728477502        0.01377724015448       -2.19387736696943
C           -0.03346659251762        0.23066410329862       -1.69598438401979
N            0.57251345031959       -0.36612943595321       -0.61633930205590
C            1.97476029363522       -0.13142539048136       -0.37699124202451
C            2.93571052535208       -0.89737184761588       -1.32097474568049
C            4.35730876091698       -0.67695287972608       -0.88880150464893
C            5.00903486243404        0.50906819465934       -1.17169608641501
C            6.30421797604191        0.73989412887049       -0.72575404592977
C            6.97522797921066       -0.21941164883646        0.01123376398832
O            8.24230259018509       -0.10619244366572        0.50362817866374
C            8.94915782788889        1.08628102347745        0.27711284219504
C            6.32620369788309       -1.44274137659041        0.29184676082367
O            7.06965047704058       -2.33758400782265        1.00336950746982
C            6.52214753770120       -3.59602545120462        1.29726366462630
C            5.03329466776976       -1.65054382271038       -0.15368067314907
C            0.02560438431540       -1.62004925178556       -0.16185224287415
C           -4.08848647801219        3.24866274516805        0.98553780741460
C           -4.52724212960892        2.76577113950660        2.36636678136470
C           -3.74772487076144        4.73571930250205        1.04592172490374
H           -4.57213142729056        1.23716431744230       -1.37385784309650
H           -6.59047083957890        0.36956580719284       -2.28279795207164
H           -6.57182458952725       -1.06787698507420       -3.33328772766790
H           -5.13946328323258       -0.01361359124841       -3.25780586140369
H           -4.75319942043919       -3.61464369464637        2.11100620748869
H           -4.95682106141761       -4.83265810353084        0.82612226921851
H           -3.34755268355616       -4.14013205410423        1.14143736066639
H           -3.08132426926274       -1.97060737394755        2.05221430347906
H           -2.31995115385746        0.34044228082570        2.13218758192668
H           -3.33157157336520        3.21899373220063       -1.61702738589201
H           -1.56399688473987        2.90123366064817       -1.28987748879732
H           -1.87118830289645       -0.81869170207511       -1.91463062195181
H           -1.61832126520792        0.65623968366828       -2.97698810655329
H           -0.82365788832857        1.90510738614032        0.74248467870565
H            0.53297593348176        1.07201469303087       -2.06915843964143
H            2.19855752546809       -0.42747871529798        0.65398071983576
H            2.17363189398219        0.94104749771482       -0.47543778543787
H            2.79380425071646       -0.54889219915901       -2.34707059260177
H            2.69639238253087       -1.96221104442976       -1.28947642279318
H            4.51199487974163        1.26955305616265       -1.75483638215440
H            6.78142274348728        1.67704986640832       -0.96513605081126
H            8.43866166418470        1.95421319542248        0.71020934634039
H            9.11799931807958        1.26294650260215       -0.79085759071115
H            9.90941151911130        0.95265520386751        0.77369942796111
H            7.29779759253569       -4.12848588045675        1.84626124896348
H            5.62802673487574       -3.51527492014614        1.92517140910127
H            6.27775455529181       -4.15400291652431        0.38693390014915
H            4.53260615769191       -2.58272956762543        0.05996437610074
H            0.10814171579369       -2.40071554685583       -0.93121762371788
H           -1.02854390361516       -1.47618331925273        0.07169872573454
H            0.54781371516013       -1.94711530690292        0.73578870329151
H           -4.92576367961180        3.11238191274865        0.28980355868391
H           -3.71332213618155        2.86888125363118        3.07731382926619
H           -4.84763771767780        1.72681383686750        2.34093370666828
H           -5.36226164052448        3.37032722402672        2.71063311127298
H           -2.97925169014555        4.90915481044807        1.79208642074236
H           -3.39618299172418        5.10567973022209        0.08670851702978
H           -4.63555736924595        5.29882310074395        1.32791281851218
H           -0.60375070905057        3.14044097513857        2.68866753693954
