72
 energy: 28.075425110034 xtb: 6.6.1 (8d0f1dd)
N           -1.53745551386767        3.10675669203408        2.25858166168599
C           -1.63140692956448        2.43511660098716        1.20487369373664
C           -2.88667312203549        2.33356787800044        0.38511789534981
C           -3.38490501412792        0.88674475920553        0.38375218871860
C           -4.27288349606091        0.47728987868220       -0.60977764933636
C           -4.72087908390529       -0.82807045765178       -0.66537362159119
O           -5.56550993565972       -1.32909478903508       -1.60989634333635
C           -6.05067539976972       -0.47206086516662       -2.60991628627693
C           -4.28899118611218       -1.75373776527262        0.31177248584742
O           -4.78542261965199       -3.01466768712177        0.17962029493176
C           -4.46757393692485       -3.95983329144882        1.16874661052993
C           -3.41790774645652       -1.33620509026453        1.30010306500742
C           -2.96636192700454       -0.02251728108622        1.33242926150222
C           -2.52020037896081        2.71552320027828       -0.99831698095832
C           -1.32724213499198        0.20995731041292       -2.08173922653834
C           -0.07064045624374        0.36920140392756       -1.65072857001593
N            0.56019718958015       -0.36893035467451       -0.68193389198791
C            1.95439446790306       -0.12586753937218       -0.39384214137142
C            2.94540275231886       -0.84983454051585       -1.32798915829763
C            4.36637271179563       -0.64088811877297       -0.88589855889833
C            5.02521182921714        0.54339038654706       -1.15673131449872
C            6.32186764996955        0.75350427238087       -0.71223600462195
C            6.98241764660385       -0.22102526276361        0.01141240875578
O            8.24622983888116       -0.11647501324954        0.50798097820395
C            8.97260133174566        1.06377749451939        0.28415832791973
C            6.32661710505712       -1.44146618999910        0.28875322182012
O            7.05582693499595       -2.34690794246842        0.99776169624510
C            6.48876672745490       -3.60042807090799        1.27818771603621
C            5.03085065510980       -1.62741186840513       -0.15849411336118
C           -0.00182296175610       -1.61148613323376       -0.22556637618907
C           -4.05515588409622        3.21931189769824        0.90755662241339
C           -4.52568917851077        2.76768918047110        2.28745198883755
C           -3.68387370465362        4.69763202148833        0.94923538617537
H           -4.58882129864720        1.18639304330613       -1.35595436220987
H           -6.64110892429602        0.35002313770691       -2.19012132272904
H           -6.69195699717793       -1.09017407530829       -3.23702369169823
H           -5.23818911133175       -0.06419856742955       -3.21908461701491
H           -4.77491756973782       -3.62645026625002        2.16482499963362
H           -5.01943549895737       -4.85898723904520        0.90190110848291
H           -3.39712719541090       -4.18800775453978        1.18329949786898
H           -3.07602889758597       -2.01992772377074        2.06159821493892
H           -2.28329543958326        0.28333672594622        2.10885009802029
H           -3.26241440817524        3.07061401905635       -1.66806014823520
H           -1.51903776970518        2.96097420638512       -1.26378089320708
H           -1.94046999659850       -0.64041854359532       -1.82757097673131
H           -1.66848765655121        0.82281314953933       -2.90008921300645
H           -0.79751102888016        1.86345171352164        0.77292589693034
H            0.53794462714472        1.24005865659430       -1.93586418404126
H            2.15468504539680       -0.42786467428698        0.63657034381566
H            2.15745834808898        0.94570790956267       -0.43420154327609
H            2.80029353229631       -0.45686385203666       -2.33486660227571
H            2.71081002727871       -1.91447078188460       -1.33567494426969
H            4.53461421439864        1.32129985385921       -1.72208279040242
H            6.80597905555561        1.69036647555868       -0.93794766380694
H            8.47830098170063        1.93220183374935        0.73025054952034
H            9.13437303832892        1.24279006204696       -0.78371619984652
H            9.93683243955804        0.90767914670276        0.76969643429700
H            7.25586541233586       -4.15120263889645        1.82118977295770
H            5.59740939931413       -3.51202544764581        1.90852804910353
H            6.23450367307360       -4.14454035987611        0.36242473809168
H            4.51752523764926       -2.55459340087593        0.04779619035173
H            0.05914304766325       -2.42790614077657       -0.95309157159647
H           -1.04835860120517       -1.47221614260189        0.04879762085348
H            0.53517672126770       -1.91909931149776        0.67473928222749
H           -4.88058602359227        3.08763049660826        0.19596785183563
H           -3.72277995503016        2.87409611744467        3.01088760977307
H           -4.85662710819464        1.73213084783143        2.27285003419403
H           -5.36033901720027        3.38860653286820        2.60153181895386
H           -2.91137622707006        4.86092619295161        1.69358695621367
H           -3.32724598026094        5.04928658044161       -0.01482254118094
H           -4.55841137902900        5.28238121095819        1.22614980524694
H           -0.61775921174081        3.13006280438823        2.69511499206007
