72
 energy: -3.304918061337 xtb: 6.6.1 (8d0f1dd)
N           -1.50374755879746        2.84259233198657        2.24414633365184
C           -1.55938183510030        2.21363930821838        1.15944844537290
C           -2.77124171776366        2.10838200697660        0.27305904846298
C           -3.33381517324240        0.70018191721391        0.34579854311768
C           -4.29724699782163        0.29920816333459       -0.58121628240042
C           -4.81935178628125       -0.97836988286567       -0.56153106678726
O           -5.76046439069952       -1.45471547327233       -1.42573554950484
C           -6.31557379059523       -0.57738006635376       -2.37036182348879
C           -4.37456536127835       -1.89986393041786        0.41261984351891
O           -4.94509933766498       -3.13538335375197        0.35248126636332
C           -4.61842269519377       -4.06830013518672        1.35030705818488
C           -3.42311606178066       -1.49766789842422        1.32904879659470
C           -2.90606373732069       -0.20831446924565        1.29160421127434
C           -2.25275847252589        2.27821594194168       -1.17950661197688
C           -1.37582888498739        1.04400466774671       -1.74562151727163
C           -0.03194217060168        0.99134878708213       -1.09683061304893
N            0.61326603812780       -0.12712993847683       -0.58013092249336
C            1.99368027937573       -0.05714841077181       -0.20931590282141
C            2.94049770650491       -0.61425872278640       -1.29393728624845
C            4.36279637035509       -0.48192900512094       -0.85394615669558
C            5.06527061411739        0.68830792829512       -1.07132889488558
C            6.37194105179004        0.82252660482236       -0.62806081022017
C            6.99508158470237       -0.21104623197058        0.04803140984583
O            8.27374378389738       -0.18798094820755        0.52565943078466
C            9.04754638235528        0.96190370862150        0.31166850622803
C            6.28475248733665       -1.40939487301490        0.28271721930160
O            6.97826412610303       -2.37613719073683        0.94689027364484
C            6.35696015026838       -3.61204746529279        1.18221318044272
C            4.98211865524929       -1.52451697144275       -0.16371907059284
C           -0.04223405899038       -1.39402747800532       -0.52907877373296
C           -3.90750864834280        3.10699102954510        0.65166688132771
C           -4.50173709362713        2.77342355768592        2.02174744493692
C           -3.45942543753590        4.56662553586305        0.64058756957335
H           -4.63943568351795        0.99920744825967       -1.32592312724601
H           -6.79965457728838        0.28167218725674       -1.89332843834373
H           -7.06404944722784       -1.16280763236893       -2.90212584859816
H           -5.56586566275918       -0.22059165582964       -3.08408151913415
H           -4.85749144568963       -3.69361734331627        2.35132069610611
H           -5.22830749637855       -4.94435747244980        1.13734110230549
H           -3.56030392426523       -4.34935544845214        1.31415665746191
H           -3.07111981662584       -2.17491698233239        2.09020776890082
H           -2.17555947846124        0.08443090519945        2.02910263691491
H           -3.08777252057446        2.51273494997651       -1.83835465893071
H           -1.58669188500007        3.14834998817329       -1.21975792125010
H           -1.85399768483368        0.06132849651842       -1.68365396796454
H           -1.17912741991841        1.26707440094118       -2.80226581578862
H           -0.70655449403551        1.69919493397619        0.67720515609404
H            0.62056574821123        1.84980502433304       -1.19562981226581
H            2.15378257032596       -0.61209225968594        0.72206324762791
H            2.26557110583011        0.98301528689236       -0.01706814252499
H            2.76969120083791       -0.05368396262368       -2.21292834166185
H            2.68822707273082       -1.65936743025281       -1.47565796730108
H            4.59968167803554        1.50660515872059       -1.59980950262259
H            6.89610538543925        1.74387428311679       -0.82425619880880
H            8.61017094281864        1.84079233618217        0.79686288901986
H            9.18445848809665        1.16532763954264       -0.75581657611004
H           10.01482143841519        0.74510705859596        0.76320000636596
H            7.10293348832789       -4.21865018625735        1.69395012235094
H            5.47574560694675       -3.50851440961361        1.82458495548186
H            6.07050304820776       -4.10587243083747        0.24761492611031
H            4.42901554679136       -2.43616251753634        0.00617726872345
H           -0.16658961338780       -1.84090602884083       -1.52047293402358
H           -1.02564951353725       -1.29208613782750       -0.06151363244747
H            0.56178700807093       -2.06985836680392        0.07606233069428
H           -4.70027756588989        2.98888659302782       -0.09823662266945
H           -3.74735395395807        2.89433075356633        2.79379731714424
H           -4.87078435982863        1.75091298835219        2.04811016216456
H           -5.33272585772271        3.44375030809429        2.23397095094170
H           -2.67240837988280        4.72306317756097        1.37219772001208
H           -3.10383639265570        4.86817864619719       -0.34016958035498
H           -4.29970209699975        5.20671040017505        0.90371045745919
H           -0.60133401881348        2.85419997780910        2.71589712657049
