72
 energy: -5.987775136843 xtb: 6.6.1 (8d0f1dd)
N           -1.49490295725236        2.78740879974682        2.23724922291968
C           -1.55194359726381        2.16583201166567        1.14814710077410
C           -2.75242767830300        2.07036569934271        0.25052536189800
C           -3.31976093755784        0.66024798613256        0.32997168714749
C           -4.30162183261645        0.25891288055359       -0.57816473306568
C           -4.84165203777177       -1.01144207543878       -0.53837526751888
O           -5.80486336319853       -1.48085768181937       -1.37967889034072
C           -6.37613878637809       -0.60135830461189       -2.31363823150217
C           -4.39261673993057       -1.93169745266293        0.43547969714932
O           -4.98035771902396       -3.15951499212118        0.39609437076397
C           -4.65200346761185       -4.09224855689522        1.39348995320480
C           -3.42280039238968       -1.53210974669957        1.33395969468007
C           -2.89169957764409       -0.24822632206459        1.27957473154988
C           -2.20940538493499        2.28958635528207       -1.18525999620289
C           -1.29151863212295        1.14485021973453       -1.68841562544809
C           -0.00569009972571        1.09560879095392       -0.94373913941187
N            0.62910538941559       -0.06651231401151       -0.56684132047118
C            2.00005877901089       -0.03818207902321       -0.17038670139999
C            2.93596007892703       -0.55855764117091       -1.28237465861251
C            4.35977028138339       -0.44514339678795       -0.84154405166313
C            5.07295610343311        0.72059119644016       -1.04938850330402
C            6.38267769139640        0.83750937299072       -0.60920473855600
C            6.99609279876766       -0.20939910785576        0.05494610443599
O            8.27458311635428       -0.20551150470856        0.52754858131590
C            9.06332472616929        0.93645157950973        0.31775247159054
C            6.27318432523713       -1.40273273892999        0.28078506177741
O            6.95881905472272       -2.38123484694695        0.93504354477747
C            6.32636158707855       -3.61394035176831        1.16036207730303
C            4.96897204073481       -1.50111192162474       -0.16296802802837
C           -0.04902172723676       -1.32598005063643       -0.59849896208316
C           -3.87798631726293        3.08427940726309        0.60011738039200
C           -4.49615699372852        2.77491398197393        1.96319253945437
C           -3.40966437428078        4.53808783554868        0.57131792415748
H           -4.65331239760175        0.95805810185853       -1.31927619734524
H           -6.83711027705220        0.26439888391497       -1.82626290053122
H           -7.14678896458378       -1.17991192058378       -2.82063732297844
H           -5.64291929608017       -0.25696847969409       -3.05099840953243
H           -4.87613763918297       -3.71019975004201        2.39510001449014
H           -5.27546864687490       -4.96184527963567        1.19236497847749
H           -3.59777312359872       -4.38613443192773        1.34493482709630
H           -3.07071020616049       -2.20803324618186        2.09702529496009
H           -2.15316088609189        0.03785838849543        2.01253607384924
H           -3.04403140544201        2.41594661318886       -1.87426145957908
H           -1.63739181139744        3.22179093004291       -1.20634897278984
H           -1.81540313286009        0.18928175906930       -1.64062114099189
H           -1.04883485228299        1.35044620451985       -2.73811928767167
H           -0.68979562855758        1.66498731251639        0.64627659903393
H            0.63984035349346        1.95638562643223       -1.00665819089234
H            2.12854776038014       -0.65214746149466        0.72746513869411
H            2.29294552275692        0.98470521320174        0.07917585301509
H            2.76611330116004        0.03776033963548       -2.18010301077092
H            2.68146524263210       -1.59593772481304       -1.50327943047411
H            4.61576697326082        1.54801643492441       -1.57143287716484
H            6.91693789291252        1.75461312813562       -0.79821015761310
H            8.64098066480433        1.81810205086835        0.81183554894044
H            9.19671244102237        1.14632988886272       -0.74898155054274
H           10.03008302803894        0.70435915332828        0.76184917535092
H            7.06777376801621       -4.23196936563349        1.66457476698278
H            5.44753252509969       -3.50810342763507        1.80588507659829
H            6.03312172781094       -4.09670908734892        0.22185269022392
H            4.40762915011453       -2.40906262660294       -0.00257720120087
H           -0.20909760682554       -1.67737876950889       -1.62283668876255
H           -1.01896333663023       -1.25392452591412       -0.09754874469494
H            0.56117775141536       -2.05760969005629       -0.07363224162939
H           -4.65792863631617        2.96463846683899       -0.16135713669229
H           -3.75465547819184        2.90061263706439        2.74595082720823
H           -4.87324976842851        1.75560250353691        1.99663446403237
H           -5.32412159976166        3.45444885079414        2.15213695249588
H           -2.61765824875206        4.69590771794683        1.29732349513865
H           -3.05573021190010        4.82933329187730       -0.41425192704804
H           -4.24233032706395        5.18806686317752        0.83117573789195
H           -0.59899053968031        2.78908286007039        2.72201384167594
