72
 energy: -4.870407884136 xtb: 6.6.1 (8d0f1dd)
N           -1.50057937836447        2.82355431278970        2.24237272200724
C           -1.55616489620675        2.19738679809816        1.15583535845926
C           -2.76468349918140        2.09483702763759        0.26556566139315
C           -3.32921111406074        0.68652797979134        0.34107876662325
C           -4.29858362725146        0.28568890824956       -0.57997377982773
C           -4.82678401919124       -0.98944837509264       -0.55370506787371
O           -5.77526624298059       -1.46344315700997       -1.41034786961224
C           -6.33578355547829       -0.58520576444197       -2.35126882301566
C           -4.38070391372169       -1.91059670922853        0.42031724379429
O           -4.95708126240306       -3.14355323161610        0.36694592098097
C           -4.62981556309716       -4.07645023362425        1.36457800974149
C           -3.42311129389889       -1.50947770760036        1.33085852943663
C           -2.90118281303326       -0.22200908623838        1.28786558164307
C           -2.23930583519224        2.27727953975135       -1.18263216631733
C           -1.34847410779330        1.07774368544460       -1.72805516087395
C           -0.02364060346481        1.02748138887337       -1.04534054224252
N            0.61860470105013       -0.10691039570929       -0.57527742388120
C            1.99600783587563       -0.05075973520097       -0.19598899417879
C            2.93902842481435       -0.59565756193868       -1.29005903225115
C            4.36180771625223       -0.46946096558948       -0.84989873193099
C            5.06779986236183        0.69932464809964       -1.06405594325743
C            6.37542725113076        0.82771731219400       -0.62163637958536
C            6.99535929584229       -0.21036720354265        0.05045567720273
O            8.27405856252367       -0.19383773159139        0.52641467435387
C            9.05283472706732        0.95342046202598        0.31367994481797
C            6.28079551953987       -1.40701077245572        0.28221772501397
O            6.97173650181349       -2.37773906585543        0.94300857187745
C            6.34684541399686       -3.61268059139211        1.17495030469230
C            4.97762303067242       -1.51648315419559       -0.16327514991711
C           -0.04435985272461       -1.37186985786237       -0.55237844034984
C           -3.89740347939957        3.09907842874647        0.63425483763630
C           -4.49987142185221        2.77411777344671        2.00220064026522
C           -3.44254826073879        4.55676064427815        0.61740387218832
H           -4.64361662519481        0.98543084713279       -1.32363227660899
H           -6.81193534996219        0.27615949870608       -1.87056068887506
H           -7.09183717121305       -1.16828460377967       -2.87476039298335
H           -5.59151902738143       -0.23261140969705       -3.07297381825225
H           -4.86376468843384       -3.69926731857707        2.36584172032078
H           -5.24432845069432       -4.95031969818090        1.15556226269047
H           -3.57299106382733       -4.36184751512409        1.32421096902483
H           -3.07120821652077       -2.18636822080932        2.09258747779776
H           -2.16795074869100        0.06861890352596        2.02374608905356
H           -3.07518483844372        2.48040090090879       -1.85056823936525
H           -1.60262974109930        3.16930860188459       -1.21648214709744
H           -1.84085214521568        0.10356154626328       -1.67139155529024
H           -1.13495825162810        1.29531553205563       -2.78261099408577
H           -0.70065956075746        1.68848037443210        0.66643075955365
H            0.62635527824783        1.88678412996494       -1.13288818541806
H            2.14580169652353       -0.62516771429110        0.72494360942586
H            2.27457142995737        0.98409521106872        0.01474169847767
H            2.76824137813438       -0.02318139495316       -2.20204994782465
H            2.68603766560550       -1.63836048466766       -1.48469812739232
H            4.60488543545372        1.52067770636257       -1.59027374154795
H            6.90292744086064        1.74766258233389       -0.81544964304220
H            8.62048733565861        1.83325017448880        0.80188083390142
H            9.18840929443604        1.15897359972815       -0.75358877552137
H           10.01998861176166        0.73148066833021        0.76264317707625
H            7.09142221228641       -4.22308896734915        1.68405382849198
H            5.46648843160840       -3.50846728093033        1.81846311666596
H            6.05806376349948       -4.10276443358636        0.23903167546384
H            4.42170339698065       -2.42685303090930        0.00356381186208
H           -0.18091715075876       -1.78710308258446       -1.55562938608358
H           -1.02319481689715       -1.27905651058663       -0.07330418309985
H            0.56212353755064       -2.06692161572337        0.02641373473358
H           -4.68602277463221        2.98069329918804       -0.11949669733723
H           -3.74972523835299        2.89658482915163        2.77786997533257
H           -4.87156121352874        1.75266835145441        2.03114761931601
H           -5.32994303106392        3.44765281982713        2.20643596776453
H           -2.65399283367515        4.71363981810129        1.34731438423075
H           -3.08746848401040        4.85470654959231       -0.36498881282185
H           -4.28030071913723        5.20024233177928        0.87938542274648
H           -0.60064550883929        2.83260450490173        2.71931036407720
