25
 energy: -42.159719521820 gnorm: 0.007723124636 xtb: 6.6.1 (8d0f1dd)
C            2.86904552286671        0.73266550918271        0.44652902746122
N            1.84376343115973       -0.21624458996636        0.06957607586054
C            2.13571668240392       -1.39184852580086       -0.43328750266522
N            1.18218854309037       -2.26562608692987       -0.86639001294098
C           -0.18902423205779       -2.10064827883191       -0.53587599423664
C            0.52562920375943        0.16266194605885        0.28409209893335
C           -0.03839842520412        1.45146066913998        0.13141311755124
O            0.45128901812036        2.55410875491055        0.16381650958492
N           -1.44740931434374        1.22496693386220       -0.07191357694442
C           -2.37784315616553        2.32245404646716       -0.22602564187015
C           -1.78074173217873       -0.05262657220960       -0.18270336222234
O           -2.78564657835121       -0.64745698181161       -0.40748916400251
N           -0.49253904821546       -0.82611436969661        0.08955895259523
C           -0.59825983623974       -2.04671861800032        0.88885462492634
H            3.11208216588495        0.62404123686309        1.50543323701096
H            3.76548048852495        0.57340848807182       -0.14834050190525
H            2.49099979617810        1.74355645810500        0.28553479216403
H            3.16631463133036       -1.67120138381592       -0.57017492772890
H           -1.80383225697485        3.19677790940924       -0.53020663243832
H           -3.12383093881593        2.06960578353839       -0.97641525995820
H           -2.87231831881561        2.53160914302538        0.72311586775565
H            0.14687034969767       -2.18123143172730        1.66207848655302
H           -0.88520096863692       -2.46041997805563       -1.28087376240765
H           -1.61175159134433       -2.32112288637065        1.16045724400838
H            1.47784807842747       -3.18781863381984       -1.14959207718489
