  25
  -42.2452553100000
 C          3.2372019304        1.1663093080        0.0843447043
 N          2.2987783871        0.0752747777        0.0398160341
 C          2.5802823413       -1.2142541371        0.0300617631
 N          1.4381397143       -1.9341928990        0.0009826177
 C          0.3903569207       -1.0588748246       -0.0079037191
 C          0.9351006504        0.2134782143        0.0170907765
 C          0.0945014477        1.4050431694       -0.0041094707
 O          0.4971275614        2.5412673794       -0.0034232572
 N         -1.2507665164        1.0627188934       -0.0308547851
 C         -2.2190723257        2.1552211983       -0.0500125745
 C         -1.8173950391       -0.2001272785       -0.0469281901
 O         -2.9998391459       -0.3784642053       -0.0700887888
 N         -0.9261859480       -1.3021022768       -0.0368276192
 C         -1.4698227855       -2.6464312674       -0.0602982102
 H          3.7124729880        1.2147146643        1.0648885903
 H          4.0079153479        1.0343081841       -0.6735770062
 H          2.6991003221        2.0977013769       -0.0913015573
 H          3.5665415370       -1.6368300779        0.0423314046
 H         -1.6710797657        3.0932287997       -0.0255270717
 H         -2.8242897980        2.0942864421       -0.9531809179
 H         -2.8764405586        2.0774574490        0.8145007509
 H         -1.1706200726       -3.1958492031        0.8324224016
 H         -1.1456026804       -3.1751163975       -0.9568828470
 H         -2.5554981615       -2.5566000804       -0.0745904049
 H          1.3813086800       -2.9431387934       -0.0138987431
  25
  -42.2452551200000
 C          3.2353073364        1.2654896653        0.0582673499
 N          2.3129479475        0.1601151394        0.0409977375
 C          2.6132119137       -1.1250356526        0.0610237526
 N          1.4816721264       -1.8620179801        0.0513179240
 C          0.4211885318       -1.0024954336        0.0241419920
 C          0.9473341325        0.2778787273        0.0181539788
 C          0.0894278523        1.4562528814       -0.0297138223
 O          0.4754288174        2.5979123088       -0.0566453172
 N         -1.2507564561        1.0938329836       -0.0459026541
 C         -2.2348896680        2.1713911837       -0.0894599178
 C         -1.7989199168       -0.1771578646       -0.0311675842
 O         -2.9786565433       -0.3732030859       -0.0482384178
 N         -0.8916979925       -1.2654935180        0.0034775418
 C         -1.4156834389       -2.6177663817        0.0131768275
 H          3.7067269632        1.3474408651        1.0384651857
 H          4.0101962550        1.1241493069       -0.6936541265
 H          2.6843354961        2.1839071181       -0.1437661861
 H          3.6055666415       -1.5328011644        0.0809716288
 H         -1.7008947100        3.1175491964       -0.0814207018
 H         -2.8357848009        2.0843642214       -0.9932428801
 H         -2.8942037320        2.1004794358        0.7739712857
 H         -1.1117307139       -3.1395460452        0.9207677722
 H         -1.0806757791       -3.1646530645       -0.8683530710
 H         -2.5024739629       -2.5441764129       -0.0067560893
 H          1.4395588699       -2.8717445141        0.0602332221
  25
  -42.2452546100000
 C          3.2328048933        1.2057624041        0.0823067445
 N          2.2991321841        0.1108096804        0.0370314961
 C          2.5859511176       -1.1775110039        0.0260716408
 N          1.4467349262       -1.9021714605       -0.0015044777
 C          0.3953225618       -1.0311921619       -0.0081618402
 C          0.9348355109        0.2433745680        0.0167546982
 C          0.0894482883        1.4315283227       -0.0047866423
 O          0.4875064334        2.5693302372       -0.0062561007
 N         -1.2544743067        1.0837034611       -0.0295292718
 C         -2.2271421312        2.1722991207       -0.0483385122
 C         -1.8159643688       -0.1814375977       -0.0444067495
 O         -2.9977012518       -0.3646240675       -0.0658904222
 N         -0.9202521517       -1.2797918095       -0.0353627022
 C         -1.4584369076       -2.6263180496       -0.0581889848
 H          3.6918571029        1.2686089673        1.0698226924
 H          4.0160268788        1.0668321463       -0.6612481251
 H          2.6943401848        2.1330628869       -0.1127045604
 H          3.5739474839       -1.5960549123        0.0363126540
 H         -1.6829707366        3.1124543594       -0.0210720073
 H         -2.8303577953        2.1108525917       -0.9527162992
 H         -2.8857604966        2.0900373367        0.8147826896
 H         -1.1551548220       -3.1747741746        0.8337256590
 H         -1.1339401819       -3.1534335757       -0.9555899018
 H         -2.5444798307       -2.5409065953       -0.0702440246
 H          1.3940568797       -2.9113293439       -0.0170989626
  25
  -42.2452540100000
 C          3.2352823012        1.2589361476        0.1079140984
 N          2.3126405247        0.1562934337        0.0340947178
 C          2.6120844584       -1.1284506888       -0.0087994338
 N          1.4800040307       -1.8633454191       -0.0553621339
 C          0.4201119811       -1.0028347065       -0.0411627651
 C          0.9471074274        0.2759300948        0.0161319486
 C          0.0902652736        1.4559967328        0.0228211201
 O          0.4772664719        2.5972864105        0.0490922079
 N         -1.2502485579        1.0958378787       -0.0110903764
 C         -2.2334675716        2.1750569859       -0.0036756218
 C         -1.7993114409       -0.1738638678       -0.0597119723
 O         -2.9791478904       -0.3679642571       -0.0882960686
 N         -0.8929457141       -1.2634121709       -0.0761817257
 C         -1.4179787883       -2.6140735649       -0.1340923966
 H          3.6806529653        1.3111878632        1.1024557316
 H          4.0294143713        1.1382469129       -0.6272386662
 H          2.6906588462        2.1843012567       -0.0794827221
 H          3.6040890112       -1.5375126323       -0.0083280265
 H         -1.6986864825        3.1193199334        0.0527976059
 H         -2.8320974016        2.1335808287       -0.9123574109
 H         -2.8950894774        2.0617495950        0.8535985727
 H         -1.1126995204       -3.1813753178        0.7453227903
 H         -1.0850108110       -3.1158191194       -1.0428726962
 H         -2.5047782844       -2.5388129110       -0.1483416850
 H          1.4378964242       -2.8723182290       -0.0955780654
  25
  -42.2452495300000
 C          3.2214335394        1.2268463626        0.0897994134
 N          2.2877099942        0.1343746183        0.0131109585
 C          2.5729281565       -1.1529903772       -0.0427776796
 N          1.4325961195       -1.8755689957       -0.0816726324
 C          0.3821382782       -1.0039655494       -0.0491400719
 C          0.9233239981        0.2685900744        0.0117693500
 C          0.0799110708        1.4581227839        0.0302360141
 O          0.4799702560        2.5948230076        0.0540002181
 N         -1.2648613653        1.1125849128        0.0087913273
 C         -2.2362077157        2.2023458219        0.0302327947
 C         -1.8281568323       -0.1508903935       -0.0384593701
 O         -3.0103084001       -0.3320701095       -0.0541324751
 N         -0.9339593048       -1.2501242260       -0.0716665552
 C         -1.4742997232       -2.5946227765       -0.1325170191
 H          3.6080889372        1.3198636530        1.1059811824
 H          4.0545442066        1.0614220518       -0.5908505146
 H          2.7033492111        2.1508124175       -0.1667194796
 H          3.5604472293       -1.5725155713       -0.0566768629
 H         -1.6903125708        3.1410705576        0.0692236346
 H         -2.8548317019        2.1612555449       -0.8649371191
 H         -2.8803345169        2.1019836989        0.9023521738
 H         -1.1623168655       -3.1721019121        0.7377825036
 H         -1.1601666737       -3.0926966173       -1.0499778423
 H         -2.5602821743       -2.5077078616       -0.1301971985
 H          1.3785550047       -2.8835715203       -0.1308496618
  25
  -42.2419252700000
 C          3.3006220795        1.0852268083        0.0142297068
 N          2.3131784953        0.0417658815        0.0314290787
 C          2.5153000200       -1.2829935610        0.0840444965
 N          1.4076179600       -1.9985750025        0.0875485656
 C          0.4137930413       -1.1060173719        0.0344862120
 C          0.9438283364        0.2083258413       -0.0027062919
 C          0.0884606074        1.2989830685       -0.0606136409
 O          0.5463288602        2.5277487440       -0.0964754416
 N         -1.2332343182        1.0318990143       -0.0780867158
 C         -2.1902351725        2.1298016884       -0.1385718826
 C         -1.8019298789       -0.2803435847       -0.0417596772
 O         -2.9883928806       -0.4312158046       -0.0609418931
 N         -0.9111167727       -1.3280231143        0.0155861291
 C         -1.4501659281       -2.6751599577        0.0537497277
 H          3.1710839949        1.7417072444        0.8754284272
 H          4.2919539971        0.6395402026        0.0479997638
 H          3.2040808177        1.6812886051       -0.8939144646
 H          3.4911236303       -1.7277742046        0.1202526976
 H         -2.1041243211        2.7711528456        0.7402044145
 H         -2.0662118316        2.7051664831       -1.0575731337
 H         -3.1868684367        1.6872233814       -0.1433639737
 H         -0.6159511649       -3.3687077315        0.1087698705
 H         -2.0430629153       -2.8584672101       -0.8420641087
 H         -2.0997078576       -2.7850793337        0.9217936727
 H         -0.1449268234        3.2091892013       -0.1359021048
  25
  -42.2419252400000
 C          3.2738251987        1.1524826625        0.0253886214
 N          2.2943408511        0.1014207083        0.0203763318
 C          2.5067695244       -1.2227182075        0.0320460838
 N          1.4045207119       -1.9466015678        0.0234683404
 C          0.4036553114       -1.0605473000        0.0051403416
 C          0.9235475719        0.2583693240        0.0025820385
 C          0.0596159981        1.3436420659       -0.0156978442
 O          0.5079834522        2.5764224263       -0.0189652256
 N         -1.2601621589        1.0670257808       -0.0299569002
 C         -2.2258004987        2.1588436265       -0.0493952528
 C         -1.8187240620       -0.2500387631       -0.0279208149
 O         -3.0041515756       -0.4094323417       -0.0415361467
 N         -0.9196718256       -1.2920860736       -0.0094731908
 C         -1.4483358831       -2.6438608522       -0.0070987885
 H          3.1460031049        1.7833539994        0.9057606290
 H          4.2686773711        0.7136223787        0.0391056719
 H          3.1658998797        1.7732152662       -0.8647800431
 H          3.4861447892       -1.6608647991        0.0470090856
 H         -2.1359797363        2.7749733484        0.8468729650
 H         -2.1149014867        2.7616663950       -0.9523410184
 H         -3.2191314643        1.7089538555       -0.0577328763
 H         -0.6086127554       -3.3322807688        0.0227172747
 H         -2.0453920447       -2.8058111361       -0.9042728511
 H         -2.0916323356       -2.7837603869        0.8612763917
 H         -0.1886436735        3.2533849571       -0.0324055752
  25
  -42.2419247600000
 C          3.2985815393        1.0892534187       -0.0700915797
 N          2.3120834083        0.0448388955       -0.0834777322
 C          2.5144812050       -1.2788509160       -0.1574503118
 N          1.4075539995       -1.9955908799       -0.1516469242
 C          0.4139633721       -1.1049691545       -0.0696458439
 C          0.9433668708        0.2093717148       -0.0238676093
 C          0.0880967738        1.2981792588        0.0630272755
 O          0.5454875352        2.5268510189        0.1074150512
 N         -1.2328446157        1.0294322833        0.0997118457
 C         -2.1896100990        2.1253482827        0.1916668860
 C         -1.8008964820       -0.2828268199        0.0552440696
 O         -2.9867249288       -0.4352923362        0.0924899346
 N         -0.9102415778       -1.3286522950       -0.0312084865
 C         -1.4487054427       -2.6757268694       -0.0782864871
 H          3.2090173309        1.6810466305        0.8414553096
 H          4.2900449901        0.6448179701       -0.1144100401
 H          3.1611522889        1.7495070196       -0.9272273080
 H          3.4899481186       -1.7220059456       -0.2161790420
 H         -2.0491879297        2.6892162288        1.1154219255
 H         -2.1203036844        2.7778491874       -0.6803711982
 H         -3.1855686147        1.6815691101        0.2091303744
 H         -2.0229185993       -2.8731056054        0.8267121432
 H         -0.6151484855       -3.3674152831       -0.1606431484
 H         -2.1158905616       -2.7733902305       -0.9343587868
 H         -0.1455023364        3.2072102405        0.1657649019
  25
  -42.2386929000000
 C          3.2806564072        1.1465489035        0.1370996347
 N          2.2919423296        0.1016455181        0.0947148074
 C          2.5070683249       -1.2265033861        0.1146266249
 N          1.3985514800       -1.9381386175        0.0715591481
 C          0.4148739620       -1.0319807725        0.0219064601
 C          0.9336463223        0.2642664847        0.0347521950
 C          0.1119636014        1.4285956941       -0.0145811872
 O          0.4217513348        2.5874022745       -0.0151246817
 N         -1.2875493560        1.0522054090       -0.0717073813
 C         -2.2383258788        2.1567743471       -0.1235478692
 C         -1.7417636033       -0.2106349893       -0.0806771740
 O         -3.0253170252       -0.4796679549       -0.1350004860
 N         -0.9362124430       -1.2663644398       -0.0363087198
 C         -1.4487025674       -2.6227901402       -0.0481410542
 H          3.8151271266        1.1198924353        1.0874444912
 H          3.9984210026        1.0152297695       -0.6725366618
 H          2.7860221466        2.1100294233        0.0312544787
 H          3.4836006256       -1.6661100810        0.1602810630
 H         -1.6480949612        3.0746571607       -0.1054669288
 H         -2.8140504214        2.1392821563       -1.0500953032
 H         -2.8936992940        2.1548815284        0.7486528631
 H         -0.5926204870       -3.2915109084       -0.0008721423
 H         -2.0157918872       -2.8020145287       -0.9607333594
 H         -2.1009344646       -2.7852105512        0.8090146214
 H         -3.5989727330        0.3031090170       -0.1664817128
  25
  -42.2386916800000
 C          3.3000778706        1.1613323634       -0.1866451560
 N          2.3265268566        0.1034554544       -0.1220028405
 C          2.5609479413       -1.2214680036       -0.1059977209
 N          1.4634454098       -1.9475072545       -0.0320162619
 C          0.4671528877       -1.0545565073        0.0026726442
 C          0.9666822372        0.2481408261       -0.0516707255
 C          0.1279088115        1.4012132693       -0.0387772350
 O          0.4199659169        2.5635826323       -0.0869256008
 N         -1.2652309937        1.0065286869        0.0450291287
 C         -2.2318514187        2.0982185635        0.0693149349
 C         -1.7005525149       -0.2618833473        0.0976517323
 O         -2.9794714829       -0.5477391013        0.1715961857
 N         -0.8798924394       -1.3066537818        0.0783544742
 C         -1.3723811057       -2.6693355833        0.1350535346
 H          3.9051834764        1.1714951909        0.7208709441
 H          3.9563663390        1.0131209675       -1.0439832570
 H          2.7847659262        2.1149542350       -0.2831543290
 H          3.5432910232       -1.6480824375       -0.1499704242
 H         -2.8002950283        2.1016409270        1.0004902292
 H         -1.6554240550        3.0235520054        0.0174094820
 H         -2.8936600992        2.0592816664       -0.7971363970
 H         -1.9214258804       -2.8319555960        1.0617305493
 H         -0.5076312064       -3.3270410686        0.0912844307
 H         -2.0365124505       -2.8637391479       -0.7061147311
 H         -3.5642666380        0.2272959849        0.1835869577
  25
  -42.2386913200000
 C          3.2998068385        1.1617933956        0.1716301652
 N          2.3258800055        0.1036629208        0.1186872208
 C          2.5577753261       -1.2213865614        0.1513842140
 N          1.4592575220       -1.9476654706        0.0974370587
 C          0.4648079294       -1.0547413835        0.0273339281
 C          0.9665696410        0.2481952756        0.0383292427
 C          0.1310266227        1.4013635958       -0.0347260063
 O          0.4261062487        2.5639324557       -0.0428684263
 N         -1.2626408621        1.0065151561       -0.1087205267
 C         -2.2265170941        2.0982764527       -0.1840484508
 C         -1.7004061992       -0.2621293726       -0.1141111667
 O         -2.9794688231       -0.5481683233       -0.1853001525
 N         -0.8821500423       -1.3069534094       -0.0493510708
 C         -1.3772513505       -2.6698417857       -0.0581264349
 H          3.7894226863        1.1740340338        1.1463335519
 H          4.0559514879        1.0121423430       -0.5986759787
 H          2.8000523440        2.1151042643        0.0114209885
 H          3.5391171641       -1.6479839818        0.2140254347
 H         -1.6484101599        3.0238022360       -0.1638492750
 H         -2.7872575363        2.0664996864       -1.1193703532
 H         -2.8955399553        2.0944684326        0.6777080911
 H         -0.5131621721       -3.3274456965       -0.0019691608
 H         -1.9362793206       -2.8602899073       -0.9733587814
 H         -2.0327763799       -2.8366850272        0.7956583502
 H         -3.5621231098        0.2271278599       -0.2328870105
  25
  -42.2381963400000
 C          3.2976147985        1.1302998993        0.0244521895
 N          2.2941194649        0.0987737860        0.0197356566
 C          2.5017764081       -1.2308793979        0.0307380711
 N          1.4013942607       -1.9467633513        0.0215720932
 C          0.3992213673       -1.0570339474        0.0035242032
 C          0.9189965759        0.2627077900        0.0017605639
 C          0.0397343331        1.3372766450       -0.0151319252
 O          0.3466836076        2.6206731495       -0.0195160062
 N         -1.2730270650        1.0535061158       -0.0287990580
 C         -2.2166736683        2.1595059131       -0.0464213850
 C         -1.8290987258       -0.2556881380       -0.0279471281
 O         -3.0116216468       -0.4278213582       -0.0408750059
 N         -0.9196894547       -1.2967984425       -0.0110904093
 C         -1.4417961622       -2.6505080048       -0.0107467943
 H          3.2062059011        1.7566084932        0.9149850180
 H          4.2802865842        0.6622953634        0.0393152062
 H          3.2273468653        1.7441236045       -0.8766367981
 H          3.4811648109       -1.6685217674        0.0457463658
 H         -2.0774026858        2.7804670308        0.8375169561
 H         -2.0575556541        2.7692753861       -0.9347958504
 H         -3.2223824846        1.7450046952       -0.0550978007
 H         -0.6009328489       -3.3372578724        0.0237901897
 H         -2.0341517345       -2.8142680523       -0.9106994836
 H         -2.0900131691       -2.7911669705        0.8538441591
 H          1.2979965924        2.8013623047       -0.0094355507
  25
  -42.2380625600000
 C          3.2797326808        1.1381248403        0.1329207525
 N          2.2879803002        0.0959511977        0.0922068456
 C          2.4987919880       -1.2324740364        0.1112696868
 N          1.3867364345       -1.9397720573        0.0686269826
 C          0.4083411632       -1.0276959778        0.0203044660
 C          0.9305574442        0.2646809868        0.0332004598
 C          0.1092760173        1.4334017258       -0.0147341284
 O          0.4260836581        2.5894273776       -0.0138835751
 N         -1.2851696835        1.0578643055       -0.0710678629
 C         -2.2526863830        2.1444425544       -0.1227901109
 C         -1.7466606912       -0.1949496280       -0.0805739622
 O         -3.0512962979       -0.3281588963       -0.1365091639
 N         -0.9468582301       -1.2622944791       -0.0368570699
 C         -1.4343397443       -2.6315397360       -0.0470423226
 H          3.8260312451        1.1002109224        1.0760830660
 H          3.9869257389        1.0140052514       -0.6872228027
 H          2.7854079847        2.1034838322        0.0430839420
 H          3.4732500084       -1.6764654332        0.1558893039
 H         -1.6944147322        3.0787208008       -0.1028317485
 H         -2.8393490058        2.0831713156       -1.0377870528
 H         -2.9217096705        2.0939933186        0.7344996986
 H         -0.5544144418       -3.2723633878       -0.0016743450
 H         -1.9775485831       -2.8485463332       -0.9683323381
 H         -2.0588128552       -2.8329449662        0.8249667932
 H         -3.3587095971       -1.2492473071       -0.1427333088
  25
  -42.2089946200000
 C          3.3316806093        1.1288272703        0.1636896197
 N          2.3560473581        0.0828519707        0.0797270832
 C          2.4980332127       -1.1514719864       -0.3595840569
 N          1.3869275306       -1.8856296183       -0.3442864079
 C          0.4338934981       -1.0988704065        0.1207822471
 C          0.9898676630        0.2313857350        0.5141839672
 C          0.1193676363        1.3593660405       -0.0858955456
 O          0.5709213812        2.3809556951       -0.5076673711
 N         -1.2097745017        1.0522691565        0.0246065949
 C         -2.1810031676        2.1107782105       -0.2572914979
 C         -1.7669374383       -0.2119257952        0.2269445789
 O         -2.9369388854       -0.3900414687        0.3526754535
 N         -0.8674822554       -1.3120913844        0.1529791317
 C         -1.4452808626       -2.6238217633       -0.0781513117
 H          3.5509763572        1.3637840460        1.2071821191
 H          4.2476465829        0.8179688415       -0.3329858159
 H          2.9362017303        2.0276408397       -0.3152026934
 H          3.4268765234       -1.5489187729       -0.7302543692
 H         -1.6602327176        3.0645134859       -0.2536184193
 H         -2.6472853381        1.9505141158       -1.2285201960
 H         -2.9518015896        2.0943957587        0.5108588301
 H         -0.6358597129       -3.3387318795       -0.1948028502
 H         -2.0655354724       -2.6062488826       -0.9737489043
 H         -2.0759226120       -2.8900389885        0.7699448715
 H          0.9477465938        0.3962766494        1.6008017435
  25
  -42.2089944500000
 C          3.2791404112        1.1267920722       -0.2217814424
 N          2.3105940520        0.0778439741       -0.1008150142
 C          2.4614801613       -1.1398469242        0.3799108553
 N          1.3551339560       -1.8813040509        0.3918500571
 C          0.3961027965       -1.1169257942       -0.0974766573
 C          0.9426044521        0.2027832363       -0.5368764584
 C          0.0659999719        1.3446269138        0.0274043018
 O          0.5119792178        2.3826891244        0.4133821760
 N         -1.2612362017        1.0254854320       -0.0696324003
 C         -2.2388557723        2.0867008042        0.1780965945
 C         -1.8105435470       -0.2482968289       -0.2293687318
 O         -2.9794907420       -0.4378004114       -0.3478578129
 N         -0.9039441409       -1.3395002113       -0.1197620910
 C         -1.4727232168       -2.6462356107        0.1575931230
 H          2.8792624558        2.0381267867        0.2289939058
 H          4.1986039741        0.8380900027        0.2817459536
 H          3.4937282714        1.3292490338       -1.2730311887
 H          3.3935716764       -1.5189024451        0.7615259860
 H         -2.7027077056        1.9561229039        1.1549481433
 H         -1.7242463109        3.0431993092        0.1416652988
 H         -3.0107540650        2.0397032241       -0.5877419311
 H         -0.6583556725       -3.3513633999        0.2972550799
 H         -2.1030356801       -2.9457344238       -0.6796023763
 H         -2.0915429026       -2.6018122766        1.0532835367
 H          0.8969758789        0.3310490851       -1.6282698796
  25
  -42.2089944300000
 C          3.3349375079        1.1303626738        0.0359808998
 N          2.3571820183        0.0830162298        0.0366206773
 C          2.4738510972       -1.1612885507        0.4546904568
 N          1.3662281774       -1.8942865432        0.3562863319
 C          0.4417102875       -1.0962131357       -0.1455978744
 C          1.0190088256        0.2424631557       -0.4744241175
 C          0.1136216861        1.3570542136        0.0983949752
 O          0.5385914299        2.3684611971        0.5694578406
 N         -1.2063690294        1.0533728041       -0.0978145873
 C         -2.1932747811        2.1059597595        0.1496404951
 C         -1.7497391712       -0.2057525750       -0.3606791610
 O         -2.9102579314       -0.3802299928       -0.5587509670
 N         -0.8553869588       -1.3077482795       -0.2593029876
 C         -1.4446594106       -2.6242626585       -0.0936279293
 H          2.9117345225        2.0165908384        0.5146572494
 H          4.2212523413        0.8062226404        0.5760434656
 H          3.6133318909        1.3924862323       -0.9867204145
 H          3.3795729700       -1.5680432392        0.8698189348
 H         -1.6740202855        3.0594627419        0.1962568798
 H         -2.9182674368        2.1060065758       -0.6621138708
 H         -2.7149620546        1.9254386573        1.0886552685
 H         -0.6433377957       -3.3406931267        0.0630135794
 H         -2.0162614634       -2.8743556584       -0.9873117813
 H         -2.1238561779       -2.6245856785        0.7582875717
 H          1.0413207883        0.4322127535       -1.5575884612
  25
  -42.2089939700000
 C          3.2815290866        1.1276824770        0.1551794132
 N          2.3116136555        0.0790663192        0.0428761469
 C          2.4537209761       -1.1336267286       -0.4529484495
 N          1.3479594801       -1.8759937905       -0.4500715472
 C          0.3983680407       -1.1175428159        0.0662244492
 C          0.9526264603        0.1982081776        0.5078126870
 C          0.0639776424        1.3451602935       -0.0261160705
 O          0.5010373515        2.3878400036       -0.4098341371
 N         -1.2608555638        1.0237845296        0.0942732714
 C         -2.2432765823        2.0868751478       -0.1245035666
 C         -1.8060310603       -0.2523171456        0.2500614290
 O         -2.9724780210       -0.4445081002        0.3877710216
 N         -0.9008884552       -1.3413704708        0.1120369388
 C         -1.4738671881       -2.6465358897       -0.1640137386
 H          3.5196741508        1.3169916041        1.2037642552
 H          4.1896561624        0.8466511840       -0.3726334077
 H          2.8705804371        2.0440796567       -0.2748155622
 H          3.3781801500       -1.5074672786       -0.8575862113
 H         -1.7307959163        3.0438256393       -0.0741595464
 H         -2.7152865994        1.9741821218       -1.0997000660
 H         -3.0080430094        2.0228013482        0.6471500324
 H         -2.0665872184       -2.9649502936        0.6935622136
 H         -0.6622076337       -3.3442616477       -0.3499453701
 H         -2.1304600060       -2.5896511478       -1.0315697056
 H          0.9291419403        0.3145999358        1.6012559247
