72
 energy: -99.252472942162 gnorm: 0.002414462662 xtb: 6.6.1 (8d0f1dd)
N           -1.80318299718314        2.77326565489362        2.20925996318546
C           -1.80594167560959        2.02103611786242        1.21402327407693
C           -2.97607552763771        1.83246633856328        0.28772284842845
C           -3.45284013917919        0.38962571606041        0.36617604806307
C           -4.38567580651793       -0.08362298735047       -0.55826609626430
C           -4.86347761828638       -1.38320000602504       -0.50447868945088
O           -5.76377245924316       -1.91696703386637       -1.35200056666677
C           -6.35339569606543       -1.10463128760505       -2.34003955254578
C           -4.39088247823232       -2.26152160246895        0.51086531498914
O           -4.90665329516135       -3.50276817053018        0.48803414802182
C           -4.54147565297364       -4.41901843390301        1.49505501642905
C           -3.46493545788867       -1.78263556525394        1.42605951913374
C           -3.00587159111840       -0.47526646982913        1.35500261960467
C           -2.44835503350633        2.13642307938635       -1.13905736509042
C           -1.50048335644277        1.06538330163194       -1.70020653238400
C           -0.14635352753008        1.11198836045735       -1.10436417094289
N            0.62111959275558        0.08307363617083       -0.82557025710196
C            1.99669931527122        0.28357445803804       -0.44096799475873
C            2.95467332886980        0.09153340269279       -1.62830113998653
C            4.36867108137393        0.16539832808913       -1.13235170455247
C            5.20073429211291        1.25986274279898       -1.38774527669943
C            6.48392261216314        1.31176412542724       -0.87042848741448
C            6.99263252387543        0.28615390707191       -0.08031446744354
O            8.21443114029663        0.24176503000699        0.47159739591370
C            9.10475408017949        1.31673980745135        0.26201754834224
C            6.15546452678489       -0.84804391808557        0.18473564200732
O            6.64873249840351       -1.83329159258574        0.94316767721593
C            5.80186414039664       -2.95072961762868        1.11547766419558
C            4.89781514718419       -0.82774247816196       -0.35488293893036
C            0.17889374681856       -1.28579041997484       -0.89249192199289
C           -4.17927768655387        2.76486573361650        0.61769073288356
C           -4.77369081774991        2.44258141271880        1.98643532833498
C           -3.83049090086993        4.24870972350925        0.54266198545372
H           -4.75530807000545        0.57762101752392       -1.32432369372151
H           -6.87662461277138       -0.25148565647420       -1.89803819101369
H           -7.07223841873897       -1.74218685465485       -2.85083427218875
H           -5.61214422752671       -0.74739054392335       -3.06235924472066
H           -4.82073219029519       -4.05330122764194        2.48747204578818
H           -5.09595068476756       -5.32936110636328        1.27617901064498
H           -3.46868584880385       -4.63330294240970        1.47250744238162
H           -3.09838219885766       -2.42019979205188        2.21363169653763
H           -2.30667505525701       -0.13448497957602        2.10229356628011
H           -3.29970453191614        2.22697127542730       -1.81269134251742
H           -1.93539851173044        3.09866782058237       -1.12806821801820
H           -1.95681375480956        0.08049394203722       -1.60727271353610
H           -1.38082369827984        1.26812758250537       -2.77258678062305
H           -0.92408677565890        1.44131819059683        0.88123247894215
H            0.31118971714282        2.08881644295504       -1.01878468728412
H            2.25016923491695       -0.46847802735701        0.33228217375327
H            2.12594883633938        1.28544286014371       -0.02647794997116
H            2.77285145145563        0.85888207388514       -2.38295624819219
H            2.78099691757941       -0.89035375770326       -2.07133298458724
H            4.83519834343065        2.07223281489180       -1.99805497598859
H            7.09420949672358        2.17319353939264       -1.09081020207904
H            8.70388520569847        2.24965328477347        0.66958122467684
H            9.32918937404829        1.44754530154520       -0.80060275187899
H           10.01553665153575        1.05042069880263        0.79470723366084
H            6.25849528172263       -3.57043130066421        1.88337268287013
H            4.79907235622223       -2.63609717523100        1.42304523910254
H            5.71967981735487       -3.51672000198654        0.18219435257714
H            2.19661641963606       -2.04913392386010        1.14160495315465
H            0.33799151531952       -1.70389760658619       -1.88816127834171
H           -0.87619893394889       -1.36874041581611       -0.63708760700175
H            0.76649265981091       -1.87136133928239       -0.17258231218815
H           -4.94607714782234        2.55923059269675       -0.13820545576698
H           -4.05076585587612        2.65824339860075        2.76693597669187
H           -5.06439289537845        1.39691785631228        2.05302452424466
H           -5.65604235090976        3.05442661085520        2.15413971731570
H           -3.03768355681030        4.48599226515064        1.24543993620847
H           -3.52639735360346        4.54573684280795       -0.45761419536790
H           -4.70628000253419        4.83394868138714        0.81023255767675
H           -0.95117731440717        2.84620178797065        2.75571757100186
