25
 energy: 64.539770661762 xtb: 6.6.1 (8d0f1dd)
C            3.26011119140285        1.45934426868664        0.16434712869921
N            2.52173467692527        0.18859380440761        0.02332840182656
C            2.89749444708950       -1.11619422791978        0.03487028639550
N            1.78634391295716       -1.92620769404113        0.01329832209319
C            0.63477850779201       -1.15707299294453       -0.05436511348931
C            1.14107346550179        0.16390235249246       -0.07468251315074
C            0.26711188887770        1.30628380168668       -0.11589731193117
O            0.61094533994739        2.48511111759406       -0.13630372011746
N           -1.04636954132850        0.91844893065808       -0.08991009966368
C           -2.11980605418685        1.89759552078556       -0.04984179368275
C           -1.54100105120836       -0.38892636105423       -0.08602706608046
O           -2.76713590157601       -0.36259942622367       -0.07607855590381
N           -0.67705628711387       -1.48935931611031       -0.08384683324471
C           -2.73715449031136       -2.90026814934969       -0.06892267996714
H            4.01842432435514        1.43730470457294        0.95104581975804
H            3.75255881994424        1.77981871977188       -0.76555720338029
H            2.55016021315543        2.25209766047439        0.46163272585957
H            3.89565144911563       -1.52359971153270        0.09736728806553
H           -1.58716442011239        2.84734139733072       -0.02261954087901
H           -2.77200686534600        1.75612369062075       -0.92182103888076
H           -2.76163473931324        1.70178915455567        0.82148997635746
H           -2.61633338031547       -3.37795511343650        0.85725113481155
H           -2.59073263586720       -3.37425448580363       -0.99168736021205
H           -3.16212904387555       -1.93881915846623       -0.06898134866988
H            1.77858659717828       -2.94076858746886        0.04310992277932
