25
 energy: 11.777661359352 xtb: 6.6.1 (8d0f1dd)
C            3.27491037659090        1.30142860995093        0.11332730039461
N            2.40883578333779        0.12746706362799        0.01365205293273
C            2.72664039566947       -1.24234869767388        0.03255151590428
N            1.54652271245004       -1.95384661912466        0.01342713476797
C            0.47148563666816       -1.13837913184237       -0.02011127503677
C            0.99580602458051        0.17891229534399       -0.01578162911376
C            0.16330191267830        1.31528630005463       -0.05205235108238
O            0.45669719733550        2.51706512820017       -0.07104316616896
N           -1.21630818315410        0.94625060261213       -0.05456421022242
C           -2.17507828779524        2.03348905521042       -0.04907753692098
C           -1.75129808291624       -0.28167415056731       -0.06506796928743
O           -2.96827756983697       -0.39392484013449       -0.07867660454296
N           -0.91665476978583       -1.43275416307657       -0.05349806709711
C           -1.83500070582757       -2.61132028657784       -0.06335779439969
H            3.86927544921638        1.32853238096792        1.03845965836054
H            3.99595681513084        1.39440433198235       -0.71830246699994
H            2.63683928199878        2.20422139026502        0.11676677612422
H            3.68892414807566       -1.71790121807191        0.06542230483926
H           -1.57676694329817        2.95039203380317       -0.02797694140709
H           -2.79837504591561        1.95437113545204       -0.94143563208388
H           -2.81600083190310        1.92846328719218        0.82849513917606
H           -1.78039881018313       -3.22732572837476        0.83296042122757
H           -1.75801483215224       -3.21912128662376       -0.96409093100498
H           -2.81256079163057       -2.16213602217638       -0.07426497254545
H            1.47555182069772       -2.95625507695636        0.03248049620210
