25
 energy: 22.023244630254 xtb: 6.6.1 (8d0f1dd)
C            3.27694918382443        1.33464367317107        0.12572019445590
N            2.43165773976288        0.13596566778085        0.01485232032092
C            2.76098569811949       -1.23174420249599        0.03104087122028
N            1.58815607227304       -1.96021416335517        0.01163817801329
C            0.48924303644832       -1.16889975469229       -0.02037348408285
C            1.01275050622581        0.15718545998662       -0.01470745588994
C            0.19192705010690        1.30150940396105       -0.06003749630129
O            0.49358774210666        2.50227519622450       -0.08157090052365
N           -1.18224433375920        0.93553838138615       -0.06182577272039
C           -2.15865998748951        2.00872307958079       -0.04974364954096
C           -1.72023270926252       -0.28902894021353       -0.06971218680714
O           -2.94328828989498       -0.35420952872832       -0.08181194600742
N           -0.91710588700288       -1.46943804377336       -0.05770962429152
C           -1.93314079856470       -2.61107130166503       -0.06539225829443
H            3.90354872535981        1.35869734982360        1.03085966026544
H            3.97631771513760        1.48405422123233       -0.71863718031633
H            2.61358028095122        2.21996975838561        0.18059910707120
H            3.73226314417655       -1.69065179612465        0.06963769028179
H           -1.55519573152755        2.92411740081794       -0.02836744604356
H           -2.79036194104023        1.91775993484806       -0.93730711348123
H           -2.80227474173942        1.88666297992920        0.82649653671687
H           -1.93208727736180       -3.22398363487518        0.82929005332947
H           -1.91310248800643       -3.21054749727928       -0.97000462399813
H           -2.87101987873388       -2.07982678550977       -0.06997286493201
H            1.53897376679287       -2.96405277844812        0.03188564894124
