25
 energy: 49.369120320645 xtb: 6.6.1 (8d0f1dd)
C            3.25477629739750        1.39311782473449        0.14895341635340
N            2.46358573979332        0.15397027231130        0.03465488774044
C            2.82178830056440       -1.20096724653617        0.03270301413468
N            1.66856025291120       -1.96523237683654        0.01491751318893
C            0.53097640007685       -1.21757292258530       -0.02971107859961
C            1.04546646260585        0.12535549775556       -0.03353367140060
C            0.24399304419386        1.28415945491054       -0.07480807254426
O            0.56309396167691        2.48218715879923       -0.09191346690121
N           -1.12083521092878        0.91450654787691       -0.07500816587938
C           -2.13097592725769        1.95766342024261       -0.04990480643221
C           -1.66818508162582       -0.31133201608910       -0.07862161221150
O           -2.90071270685798       -0.28682704369278       -0.08206605800324
N           -0.91963292896393       -1.53786224919169       -0.07407634868411
C           -2.13756317257898       -2.64052610430767       -0.06647575954792
H            3.92447966286987        1.43472460268369        1.01813440647306
H            3.87129757850226        1.62239535408234       -0.73562470534041
H            2.55799364186071        2.23430837677764        0.30927857024008
H            3.80979453765756       -1.62146973165639        0.08028046286165
H           -1.52543818345986        2.86907895624543       -0.02793617032045
H           -2.77535736865537        1.84527115776463       -0.92944226321067
H           -2.77758981587686        1.80458066813470        0.82369398655708
H           -2.22909781329497       -3.24008258414122        0.82668912150104
H           -2.21949801606716       -3.23111569958329       -0.96632055795468
H           -2.98549440646953       -1.96818948915713       -0.05980988596415
H            1.66108476391604       -2.97298867011333        0.03415010443339
