25
 energy: 44.046325304262 xtb: 6.6.1 (8d0f1dd)
C            3.44854338187235        1.67245391637805        0.11877102939719
N            2.73109259559824        0.40594971622707        0.03055511758437
C            3.16513731215496       -0.85200874915950        0.07588085847443
N            2.13435646122832       -1.73583546946049        0.03658123034316
C            0.94751651460522       -1.01155644619330       -0.03088122664394
C            1.36784588091296        0.33444559184492       -0.04955206949583
C            0.40908492211847        1.39380871155225       -0.10179965082025
O            0.67568016353066        2.58855401219353       -0.13202412962239
N           -0.85231988019869        0.86720084459404       -0.10707324580449
C           -1.98351195094000        1.77372390226491       -0.07033379832083
C           -1.26013343137809       -0.48859565707244       -0.05786281593519
O           -2.46057590882388       -0.63915187091893       -0.01826212679849
N           -0.29253022721869       -1.45966571544156       -0.04839389108599
C           -3.71642937660544       -3.40112156780995       -0.10950644192233
H            4.30700871502253        1.61356152592937        0.77947086193223
H            3.82814520635677        2.02076156824699       -0.84275944977666
H            2.76726828459771        2.46259083028666        0.44012596084275
H            4.18390944783219       -1.16509571352204        0.14911953695620
H           -1.58942841851758        2.79205862352344       -0.05083676182768
H           -2.62999555535068        1.58419897366389       -0.93517854218406
H           -2.56510724465923        1.56488953470815        0.83473917994487
H           -3.85735464372944       -3.89199136964056        0.81710695588619
H           -3.81436115848425       -3.92875399660111       -1.02056816143394
H           -3.74440490490789       -2.33851839833532       -0.12916323556225
H            2.20651109500751       -2.75001198819227        0.12131877003001
