25
 energy: 57.783912482725 xtb: 6.6.1 (8d0f1dd)
C            3.28571077268009        1.55038186427986        0.17942535508519
N            2.58982229991021        0.26645194487166        0.01622979555285
C            2.99141921915790       -1.01582302965083        0.05150263776386
N            1.92268494704960       -1.87035056129660        0.02724626732724
C            0.75225291132856       -1.12496943504607       -0.05595556937699
C            1.22502170545249        0.20381074858030       -0.09241960570334
C            0.32341740822284        1.30733672639989       -0.17083447007355
O            0.65486646635674        2.48302925175016       -0.24605157239891
N           -0.97639913019365        0.89289287260353       -0.12569749736946
C           -2.07650005949821        1.85025703547341       -0.05071932865436
C           -1.43685878813028       -0.43955095304832       -0.07864291686073
O           -2.65345605232792       -0.44753222002796       -0.02482854733184
N           -0.53183944376937       -1.50022993951424       -0.07128109469096
C           -3.15543174817932       -3.03801263296080       -0.08415691322945
H            4.16181753300385        1.45364572122092        0.81616396159315
H            3.57070159959730        2.00057528562197       -0.77686909326126
H            2.63287283010413        2.27823239433953        0.67086086617542
H            3.99372751763311       -1.38283942379809        0.14285131035456
H           -1.66955643701757        2.85744099430009       -0.00927272857588
H           -2.73667631762682        1.70406806682601       -0.91054576800985
H           -2.70243774085640        1.60132151894984        0.82109389830133
H           -3.09915641892940       -3.53688382774316        0.83869337401042
H           -3.06174306379288       -3.56757313060359       -0.98427992429452
H           -3.43656539595686       -2.01932068130651       -0.10281611464965
H            1.95244101015049       -2.88909405109541        0.08171659255062
