25
 energy: 41.531869355925 xtb: 6.6.1 (8d0f1dd)
C            3.48345472240569        1.68365170209035        0.11608450544361
N            2.75383488101841        0.42976078668446        0.03964561316941
C            3.19557351502956       -0.82329008638767        0.07803387099948
N            2.16250510876137       -1.70128752433784        0.03824423903713
C            0.97768316471168       -0.97981963487245       -0.02444215197716
C            1.38954653555219        0.36671774351258       -0.03602145120646
C            0.41298222464145        1.41355497119062       -0.08001534818924
O            0.66331751683264        2.61057746969422       -0.09724795706972
N           -0.84708817168734        0.87638770502629       -0.09542998276035
C           -1.98215748686871        1.77524210093223       -0.06793116368567
C           -1.23497003633283       -0.48935455562477       -0.05640285521298
O           -2.43107702076768       -0.67646028760137       -0.02619885063613
N           -0.25411003210911       -1.43991479561061       -0.04518072035501
C           -3.83288092081580       -3.49536658251038       -0.11408643933437
H            4.29562458855344        1.63632483521903        0.83466441400785
H            3.92600486179785        1.96904923063148       -0.83713390640347
H            2.79756759498933        2.49675325266670        0.36779908634892
H            4.21977274438345       -1.13019587003096        0.14158456810497
H           -1.57268987353846        2.78581974938182       -0.05691845338108
H           -2.61107654842374        1.59555308406771       -0.94383153386558
H           -2.58699856252152        1.54485367715622        0.81914984443291
H           -4.00548845573199       -3.97790535368466        0.81280903102106
H           -3.97497292524309       -4.01527100339657       -1.02503765454674
H           -3.74083881355544       -2.44093566435447       -0.12997895900453
H            2.23339772044062       -2.71183641472609        0.12516963291947
