  25
        -42.18197389
 C          3.1269133471        1.0805414490        0.4773962230
 N          2.1831644628        0.0683519875        0.1149386110
 C          2.4102841554       -1.3078389568        0.1571172856
 N          1.4114694916       -2.0107463406       -0.1911000207
 C          0.3726099034       -1.1051674060       -0.6084506090
 C          0.9298887634        0.2425811395       -0.2994613469
 C          0.0801670303        1.4109389639       -0.1836611430
 O          0.4825765181        2.5518981412       -0.1002544005
 N         -1.2628233944        1.0712249175       -0.1316773538
 C         -2.2285339098        2.1480436272       -0.0469583209
 C         -1.7821671600       -0.2173004482        0.1050628356
 O         -2.9383628327       -0.3527637471        0.4096998233
 N         -0.9197200573       -1.2803381489        0.0015561436
 C         -1.4236462817       -2.6222677676        0.1481078767
 H          3.6549756062        0.7885822510        1.3853395572
 H          3.8608921556        1.2085299911       -0.3230002607
 H          2.6084185552        2.0290277759        0.6242641565
 H          3.3519250607       -1.7151635099        0.4787349258
 H         -1.7320050462        3.0798878569       -0.3091708985
 H         -3.0555181108        1.9415377642       -0.7273976848
 H         -2.6400357870        2.2192849930        0.9625645672
 H         -0.6826413558       -3.2232297815        0.6750231794
 H         -1.6112055239       -3.0805383177       -0.8269766168
 H         -2.3566500328       -2.5798182319        0.7073294986
 H          0.2589344819       -1.2630795578       -1.7029483313
