25
 energy: 59.582287023266 xtb: 6.6.1 (8d0f1dd)
C            4.09220253556192        0.77033572946783        0.10624391186512
N            3.02718442640679       -0.17429458742363        0.05712219475341
C            3.15638782607450       -1.51963888016088       -0.04133137810828
N            1.91597668259765       -2.08454800571787       -0.04356973070979
C            0.92086668124187       -1.11649327925644        0.03655625641028
C            1.65734862242206        0.14930751726413        0.10493255765130
C            1.14581791108946        1.36302511099995        0.17635180237484
O            0.69585938788209        2.45200067768345        0.29149156569511
N           -3.49973825195235        1.30854983421977       -0.14157636496066
C           -3.80313292878064        2.68438349808653       -0.12826241271674
C           -3.85843623947146        0.18405650941215       -0.17327284007759
O           -4.08738682926309       -0.95279894639729       -0.20015793221953
N           -0.34374171943573       -1.21770651906163        0.05771014482088
C           -1.02207638981010       -2.48055663432809        0.00710076039242
H            4.10154040808520        1.30943380122027        1.05619445835725
H            5.04512925146611        0.25367526781754        0.00738545648509
H            4.00810124409645        1.49697534107359       -0.70376501911087
H            4.08494601040180       -2.03706703871499       -0.10257993561411
H           -2.86960916506655        3.24088589080177       -0.06359432237808
H           -4.32736303381987        2.96502095956848       -1.04450062577008
H           -4.43141864011499        2.92815488465873        0.73214575545775
H           -0.76194149171726       -3.10718987628375        0.86681853067664
H           -0.79193521320371       -3.02368631963382       -0.91260699687029
H           -2.09337173803318       -2.28742072901167        0.02629110770160
H            1.75793309207200       -3.07239283657495       -0.11865428924681
