25
 energy: 77.238736284453 xtb: 6.6.1 (8d0f1dd)
C            3.84133177238242        0.78438382284412        0.18835015178421
N            2.66871015357773        0.00194047228146        0.00418182694708
C            2.76812963595670       -1.33237716928391       -0.18217581177589
N            1.53961814778779       -1.89483049761800       -0.14976057100125
C            0.56916979697832       -0.91835162183034       -0.04016571220672
C            1.28453528814347        0.34350804744530        0.06739535238512
C            0.66206408811018        1.51828924536993        0.17026351148925
O            0.37706999407419        2.64009036769424        0.45023043241978
N           -2.62930730635225        1.14354719568805       -0.11827585386906
C           -3.30516653704601        2.36673304257371       -0.11153394505943
C           -3.09220517792798        0.04753702039033       -0.14303281275949
O           -3.60242756968723       -0.98429813140345       -0.18012622354885
N           -0.69242319060812       -1.06951102646962        0.01197548107275
C           -1.19196634441976       -2.43489716311914        0.12032444063370
H            3.66576654030955        1.66631652761030        0.82708526444786
H            4.52354933023790        0.04865527415272        0.60402628703608
H            4.24213632014645        1.31944558216195       -0.66687645718379
H            3.67957785528295       -1.85940385532758       -0.22528881882351
H           -2.54038486011296        3.15465064822793        0.04044937475616
H           -3.85311755482306        2.47143907371402       -1.05590970853929
H           -4.04603763353861        2.31863777377821        0.69039624499183
H           -0.63811449579571       -2.85779253109569        0.96441197148983
H           -0.95413953044162       -3.01428975604815       -0.78291405331974
H           -2.27616062780075       -2.43908453761150        0.28646996559684
H            1.35592302290261       -2.86597774805190       -0.29516370658264
