25
 energy: 73.500341469627 xtb: 6.6.1 (8d0f1dd)
C            3.85661234363284        0.77490543960518        0.19789590769851
N            2.70094476793528       -0.02397534086625        0.01852213350856
C            2.80918071480280       -1.35904694625668       -0.15743809182296
N            1.57939341605176       -1.92052001826055       -0.12576475658798
C            0.60552272658624       -0.94444883299698       -0.02837397506982
C            1.32310533899414        0.31953490717129        0.07534873076358
C            0.71843254729513        1.50409078872808        0.17063816996351
O            0.43172424456785        2.62552691579027        0.45227386145579
N           -2.73927223795226        1.15695427856007       -0.12181638032136
C           -3.37592231967509        2.39926924983611       -0.11235134293084
C           -3.19454363434699        0.06101638569491       -0.14693739650153
O           -3.65782932573415       -0.99379091029062       -0.18249271349815
N           -0.65671438082201       -1.08594014235287        0.01507592794065
C           -1.19348686304564       -2.43984138842314        0.11566857809042
H            3.68343440764808        1.67162262881832        0.79784567121754
H            4.51480495942392        0.08869698217134        0.71192679194718
H            4.28494979441138        1.21547435648823       -0.69596796528311
H            3.71959064441739       -1.89057712111346       -0.20237515418722
H           -2.59306267951898        3.16417974935765        0.03591532319510
H           -3.92189957492908        2.52496032474763       -1.05440919753921
H           -4.10985835688981        2.38465211561301        0.69698897303511
H           -0.66681795846891       -2.88465101951589        0.96539795094908
H           -0.99392929543137       -3.03082344603067       -0.78469481132259
H           -2.27580061666139       -2.43871462260360        0.27373486682051
H            1.39945664804172       -2.89406101194639       -0.25854661064309
