25
 energy: 46.531315905501 xtb: 6.6.1 (8d0f1dd)
C            3.32939089947462        1.42537736293395        0.09000126533762
N            2.48845067453102        0.25429484166993        0.07738358123287
C            2.86604812637012       -1.03322335146512        0.06446854983870
N            1.77487005922325       -1.85251895523811        0.01945546980689
C            0.63953094829877       -1.06994262686019       -0.00009422464046
C            1.12011445889322        0.25572715946311        0.03820676926652
C            0.22739530522436        1.37572857730342        0.01488560472700
O            0.57975784021933        2.55179848957233        0.02708406459905
N           -1.07816503696144        0.95339284043986       -0.03169087910821
C           -2.09597277999632        1.99794487895056       -0.05194916634721
C           -1.54152362009570       -0.38288490030514       -0.04461412918633
O           -2.75195275689028       -0.46035349910409       -0.06376676904666
N           -0.64221066339148       -1.41364210531536       -0.03769540935715
C           -2.55738696272760       -3.06299627003338       -0.09164215095391
H            3.86880096988106        1.48832124472759        1.03466825847801
H            4.04359790005323        1.39852149751085       -0.72871108936840
H            2.72522384961702        2.32736180598453       -0.03153898217786
H            3.87363455886988       -1.38737601586478        0.06483014954375
H           -1.53611628249352        2.92906127149376       -0.03520613225258
H           -2.70824562487546        1.92144197136494       -0.95106331655738
H           -2.74721891227563        1.90665371584407        0.81766063755275
H           -2.27467196883904       -3.50269322637936        0.82041179421658
H           -2.24868076129581       -3.47022747638155       -1.01037753656766
H           -3.22803160484854       -2.24771160324352       -0.08552484770064
H            1.83928093110295       -2.86597464248998        0.02114293218080
