25
 energy: 44.534021566750 xtb: 6.6.1 (8d0f1dd)
C            3.37033333144627        1.45558574292799        0.08735057872910
N            2.52181805177216        0.29059718329034        0.08882777044327
C            2.90557946596447       -0.99128635785814        0.06636531800492
N            1.82368925090616       -1.81730140011172        0.01597105644959
C            0.68749170782383       -1.03679212615689        0.00192176069925
C            1.15596918647513        0.29057335766749        0.04327793961469
C            0.24221466224750        1.40563688247692        0.01691202657827
O            0.58997763814079        2.58246198178343        0.02128781615385
N           -1.05120234911283        0.96222493213127       -0.02956429897645
C           -2.09496118356410        1.97838869248203       -0.05198524432100
C           -1.49671643320854       -0.39362863653166       -0.04260359027579
O           -2.70338898541321       -0.49372778818307       -0.06277522812201
N           -0.58079174935988       -1.39751594577979       -0.03573393688208
C           -2.71597480849504       -3.15090309972964       -0.09680167049713
H            3.89127063637692        1.53616117121464        1.04056842161420
H            4.10742492773487        1.39186450339455       -0.71171460044667
H            2.77308449315993        2.35813441287309       -0.06311343306523
H            3.91632075817127       -1.33542402344570        0.05990428979973
H           -1.57253781372809        2.93194285989131       -0.03494768700650
H           -2.70697661829034        1.88739442522811       -0.95057942012536
H           -2.74605024782732        1.86817598521839        0.81626751753663
H           -2.43601652486316       -3.59360566925988        0.81346366757313
H           -2.41197072346812       -3.55506743514471       -1.01772133683505
H           -3.34404908102910       -2.30099689778247       -0.08679882650428
H            1.88227834526333       -2.83183440984925        0.01179836428446
