25
 energy: 45.526375543083 xtb: 6.6.1 (8d0f1dd)
C            3.34854629177967        1.44051949445746        0.08867202091221
N            2.50457994544723        0.27105231263028        0.08459506180016
C            2.88518699425023       -1.01378419266350        0.06691295415571
N            1.79833476369058       -1.83621703319801        0.01829083937261
C            0.66329895167629       -1.05383013237290        0.00111706200573
C            1.13803339083750        0.27248576064528        0.04166877034709
C            0.23558270442370        1.39013630521189        0.01748967018908
O            0.58666603142130        2.56620071243997        0.02594163299794
N           -1.06385540677748        0.95725219218113       -0.03014799566097
C           -2.09458711978770        1.98807266225270       -0.05178577747977
C           -1.51889684563241       -0.38902066196544       -0.04352178083400
O           -2.72746523691828       -0.47628043937988       -0.06323656438194
N           -0.61145957006527       -1.40553788951005       -0.03696403387184
C           -2.63811318600928       -3.10517113224634       -0.09457429638171
H            3.87895812570804        1.51366032241802        1.03736139698872
H            4.07399036087429        1.39553872451384       -0.72061474531031
H            2.74789660960003        2.34306091956028       -0.04729903959505
H            3.89448435909106       -1.36230422242428        0.06296358821305
H           -1.55400801502296        2.93062747764712       -0.03478445699893
H           -2.70730649224426        1.90486720465977       -0.95046832365669
H           -2.74657180597298        1.88851350357370        0.81681216763870
H           -2.35547801089383       -3.54419666584323        0.81691910775047
H           -2.33043472328383       -3.50877492609643       -1.01455500122999
H           -3.28776038751409       -2.27314554278997       -0.08644816466734
H            1.85101124892658       -2.85078749539997        0.01604367733324
