25
 energy: -4.838970144800 xtb: 6.6.1 (8d0f1dd)
C            3.25485174429117        1.21108879245746        0.08930235344415
N            2.33223327701931        0.11916077462559        0.03141309109894
C            2.64765080384642       -1.22689760613870        0.03397305542785
N            1.47413563569566       -1.93592717568317        0.00604550479920
C            0.42876581841608       -1.08648812354757       -0.00878906654288
C            0.94070313879749        0.21518374341625        0.00841021285056
C            0.12990445637288        1.36953659595652       -0.00781040398879
O            0.48642908867727        2.55341471847621       -0.00898296975265
N           -1.25547926549092        1.01900740174438       -0.03168694081940
C           -2.21023274574000        2.11831590384799       -0.04954244490917
C           -1.78960805270386       -0.23061242587644       -0.04790102331745
O           -2.99243902801478       -0.41427411813778       -0.07086963308262
N           -0.92072201185319       -1.35022205903167       -0.03772326303652
C           -1.58704324716300       -2.64732948454885       -0.06336851927051
H            3.74403147901411        1.25563643827326        1.06789376412667
H            4.02550266310145        1.10263583905059       -0.67933145404916
H            2.70171588414006        2.14013530093573       -0.06909610383805
H            3.62793235458140       -1.64194492102559        0.04604161836506
H           -1.64795679032871        3.05187646382595       -0.02518058234395
H           -2.81498069610844        2.06307652033273       -0.95432717110481
H           -2.86586403817677        2.04484048116540        0.81738216325031
H           -1.34506430164137       -3.23546038768314        0.82577798472576
H           -1.31864543181059       -3.21389440029307       -0.95895689212334
H           -2.65369952360383       -2.45167592213353       -0.07699860806386
H            1.44026854966010       -2.93923376873444       -0.00437774767756
