72
 energy: -99.664725487417 xtb: 6.6.1 (8d0f1dd)
N           -1.10804970720368        1.98549373242250        1.99381072650670
C           -1.59386978599735        1.07147629621653        1.28059864097080
C           -2.66487869449567        1.30168229834834        0.24814274270176
C           -3.75666607276321        0.25168999037952        0.60302351898350
C           -4.72236365457260       -0.23868561546376       -0.28179479902197
C           -5.73522337848706       -1.09885576618870        0.12074595935414
O           -6.71222941133058       -1.62321316914029       -0.67642558450403
C           -6.70972306889676       -1.31557126217320       -2.04278334677207
C           -5.82313637225526       -1.51803854924816        1.46077829870322
O           -6.84550292834779       -2.38384842745324        1.72248498374223
C           -7.03018207140394       -2.85170507196228        3.03068783899465
C           -4.89367149352390       -1.01974320189807        2.35321882261036
C           -3.90141188990196       -0.13536669873474        1.93914327637126
C           -1.99160849648639        1.43878289620793       -1.18468637425068
C           -0.87206273745656        0.63946224910282       -1.87032657005236
C            0.10981389993056        0.09935056182210       -0.89865973911248
N            1.16529936534803       -0.61084515280120       -1.42227717394238
C            2.47866717940522       -0.51669656914189       -0.87042748600725
C            3.51358504584417        0.19565540505871       -1.77168287268227
C            4.82579183505121        0.24424627947306       -1.05073161020180
C            5.39206659973564        1.43973757615054       -0.65617882622840
C            6.60213811639084        1.45660573187969        0.02338825900404
C            7.24470125712090        0.27472767880768        0.34659984250185
O            8.43338752428927        0.18067211430081        1.00674851267028
C            9.08365284125769        1.37484812534995        1.35231093177485
C            6.65856603369337       -0.95768111227351       -0.02253877327319
O            7.34409933889848       -2.07423742292406        0.36199049159311
C            6.79398923669089       -3.33783537022901        0.08362050382215
C            5.47266474079695       -0.95251900158268       -0.72867346434886
C            1.01820188061122       -1.22452067669483       -2.71145853520175
C           -3.39231309848730        2.69223013663678        0.35479677593520
C           -3.97706034571730        3.01392690744292        1.73099060172328
C           -2.48888788034767        3.86453086450023       -0.04017405782544
H           -4.69617161717913        0.06157392970160       -1.31529400855307
H           -6.86972925597645       -0.24570650243179       -2.21186353564949
H           -7.53895189518324       -1.87751407124750       -2.47219590261448
H           -5.77371254924781       -1.62306426575280       -2.52296225788724
H           -7.26765742601027       -2.03421689272835        3.71650996104345
H           -7.88331730276072       -3.52790178019239        2.98200723757184
H           -6.15378773744172       -3.39991025948996        3.39446370634170
H           -4.94250754248950       -1.31240996004595        3.39088271426533
H           -3.25536396696690        0.25058601738911        2.71686274589839
H           -2.82783031706134        1.52051656306459       -1.88396737158961
H           -1.39868732123230        2.35561477811996       -1.17795641797909
H           -1.24296533890152       -0.10414546565758       -2.58300761422795
H           -0.30841917636430        1.41842527968666       -2.45871686478170
H           -1.31045101316422        0.01423767084899        1.36420031252151
H            0.33395657971049        0.72514983814902       -0.04530786867231
H            2.82781374376503       -1.53757187889238       -0.68014270188324
H            2.40983960400536        0.01982521951502        0.08066607848959
H            3.16762822436417        1.20627843468616       -1.99831865171463
H            3.62536815955212       -0.35736237930393       -2.71154121846712
H            4.90285605398101        2.37472156433757       -0.88758376786640
H            7.02990356757244        2.40857405334359        0.29279766319823
H            8.48671309462365        1.97579937487657        2.04877723782655
H            9.32954266269631        1.97066402039323        0.46538009000501
H           10.00277138375967        1.07263767566366        1.84802183387175
H            7.48793565660223       -4.06158718021170        0.51051137277496
H            5.81217284124785       -3.46896131864465        0.55431402656078
H            6.71015869890535       -3.51233417389074       -0.99492286788305
H            5.03231942643149       -1.88680871155463       -1.04372790882088
H            1.18405865583119       -0.51532256878265       -3.53993374291873
H            0.01429899809489       -1.63001466222154       -2.80620463735788
H            1.74915950922923       -2.02717392736171       -2.79436706431376
H           -4.23091882724268        2.63020153148966       -0.35183593985816
H           -3.18688503400707        3.05309731702723        2.47514017687088
H           -4.73312702816500        2.29511427248606        2.04097150066535
H           -4.44816584335246        3.99433442608525        1.68634560350517
H           -1.63588328865462        3.86690669981567        0.63571330592817
H           -2.12389164728717        3.79324919706712       -1.06004817978546
H           -3.03029598674789        4.79652564923031        0.01953415513411
H           -0.40158915803953        1.69373917730630        2.66822353573469
