25
 energy: -42.090941155586 gnorm: 0.003315277054 xtb: 6.6.1 (8d0f1dd)
C            3.45000414280893        0.89947732230689        0.06679182287670
N            2.50938591053470       -0.18770232104454        0.00295084600073
C            2.78912117378696       -1.47504669821164       -0.10505794906021
N            1.64583675824341       -2.19464894138283       -0.09932791932108
C            0.59577001866190       -1.32392022581656        0.01757113629947
C            1.15148808030791       -0.05176031380055        0.08322905930751
C            0.28239064440261        1.14576984045311        0.15123599655384
O            0.73460816094718        2.27200980513719        0.14846935768136
N           -1.00696969464158        0.79892644840567        0.19247668006438
C           -3.67371924421565        3.64169198260173       -0.22015106319677
C           -1.59394299731893       -0.39104692595480        0.16581575334430
O           -2.77734986462873       -0.58636875339300        0.21107005965557
N           -0.71225755325239       -1.56420414900057        0.05936064048731
C           -1.28568891029988       -2.88673116611376        0.03494984619569
H            3.98342703629536        0.87787201371124        1.01734601390195
H            4.17184766574668        0.82510379333739       -0.74518827458466
H            2.89866038139322        1.83766872965146       -0.00852308594757
H            3.77228991712623       -1.89490348639816       -0.18708107412116
H           -2.79804184554375        4.26178253050645       -0.18517984256644
H           -4.07198614588953        3.32466388667486       -1.16517729263395
H           -4.14844530942863        3.32707496939271        0.68987233202191
H           -0.92506225039869       -3.48015597815674        0.87605257797295
H           -1.05830270702359       -3.39340004517646       -0.90503482129854
H           -2.36571795743773       -2.76495223571166        0.11939988862739
H            1.59308610392394       -3.19896154041738       -0.18469907036066
