  72
        -99.28062918
 N         -1.8174241081        2.7282363282        2.5721371663
 C         -1.7738392880        2.1106142463        1.4858769174
 C         -2.9075633417        2.0306530606        0.5013419366
 C         -3.4418811869        0.6067880921        0.4562853275
 C         -4.3616888160        0.2435379122       -0.5300082898
 C         -4.8881794192       -1.0348041823       -0.5934254524
 O         -5.7879039667       -1.4631736603       -1.5074672294
 C         -6.3372153755       -0.5370530112       -2.4139380803
 C         -4.4789273684       -2.0076785118        0.3552971863
 O         -5.0352654463       -3.2309861455        0.2113676076
 C         -4.7444204618       -4.2268297596        1.1626918204
 C         -3.5695321914       -1.6414480964        1.3330025864
 C         -3.0602897410       -0.3489296564        1.3832555940
 C         -2.3034496238        2.4119945752       -0.8755889288
 C         -1.4093464118        1.3285743157       -1.5052497859
 C         -0.0831453346        1.2003108231       -0.8599540186
 N          0.5223535456        0.0467180481       -0.5514281085
 C          1.9308020244        0.0238084746       -0.2477522596
 C          2.7724226231       -0.4269256101       -1.4615429040
 C          4.2338254544       -0.3060182817       -1.1417723291
 C          4.9188920739        0.8689525623       -1.4302074317
 C          6.2508361726        1.0048488230       -1.0804864183
 C          6.8947587603       -0.0427807579       -0.4486968262
 O          8.2573620497        0.0559453887       -0.0322155527
 C          8.4216732886        1.0096576224        1.1177699435
 C          6.2345014898       -1.2448622426       -0.1493262868
 O          6.9786067695       -2.1903126472        0.4598410725
 C          6.3871689123       -3.4328799674        0.7725422108
 C          4.8929256688       -1.3550688462       -0.5054613201
 C         -0.1556113541       -1.2226971961       -0.6475627681
 C         -4.0901376387        2.9854430050        0.8401619347
 C         -4.7818116653        2.5814069877        2.1401089635
 C         -3.6750736548        4.4525847654        0.9118835411
 H         -4.6801369147        0.9783429219       -1.2504851295
 H         -6.8348803367        0.2870542233       -1.8936323557
 H         -7.0727804810       -1.0945373358       -2.9905730700
 H         -5.5769065886       -0.1361849482       -3.0926123034
 H         -5.0393108522       -3.9180908835        2.1701376449
 H         -5.3303164210       -5.0944714100        0.8656183980
 H         -3.6814009457       -4.4897398215        1.1579847850
 H         -3.2552626673       -2.3534415003        2.0788998435
 H         -2.3778805315       -0.0931332305        2.1790430598
 H         -3.1179962404        2.6221124177       -1.5679718808
 H         -1.7227916908        3.3284001349       -0.7625966151
 H         -1.9414968711        0.3792212980       -1.5222410870
 H         -1.2385557227        1.6318724937       -2.5472963270
 H         -0.8726227898        1.5883899344        1.1096525956
 H          0.5197855039        2.0917187021       -0.7766828868
 H          2.1096712882       -0.6559413090        0.5902294588
 H          2.2508385682        1.0243909349        0.0504969098
 H          2.5218578312        0.2080366152       -2.3126317599
 H          2.5229920170       -1.4583330892       -1.7127078701
 H          4.4148659472        1.6790929915       -1.9323561424
 H          6.7868491455        1.9180678421       -1.2859598053
 H          7.7920781463        0.6659813250        1.9281560985
 H          8.8053634623        0.4269424413       -0.7471303930
 H          9.4768424670        1.0217987409        1.3581249912
 H          7.1759068816       -4.0197357784        1.2386808063
 H          5.5594856535       -3.3143600282        1.4771978282
 H          6.0379119152       -3.9447675359       -0.1283333804
 H          4.3535817171       -2.2646720578       -0.2956025949
 H         -0.2884475324       -1.5297095241       -1.6882382895
 H         -1.1362140095       -1.1657738882       -0.1704517601
 H          0.4326458932       -1.9803491774       -0.1345806978
 H         -4.8167882200        2.8795891213        0.0263546143
 H         -4.0966898715        2.6894899396        2.9744217943
 H         -5.1272578039        1.5513855991        2.0971237316
 H         -5.6417287434        3.2241316618        2.3100473264
 H         -2.9299236762        4.5955234456        1.6881286049
 H         -3.2800218522        4.8095158628       -0.0356622967
 H         -4.5437900323        5.0572149412        1.1590574367
 H         -0.9770733508        2.7325355708        3.1425395829
