25
 energy: 37.049506680115 xtb: 6.6.1 (8d0f1dd)
C            3.25257031595575        2.94446203661127        0.46366645830143
N            2.38042735865341       -0.59170153303591       -0.37196528972180
C            2.47358874980807       -1.84589438187031       -0.08199337878290
N            1.24238126701665       -2.46574656744400        0.09291458094239
C            0.32268495666679       -1.48025287997346       -0.08316499528391
C            1.03843722254839       -0.33046780629409       -0.36594436639394
C            0.35413105873776        0.91304608992084       -0.53392995709591
O            0.81143285273373        1.95387747243561       -0.91947226905066
N           -0.99059852513067        0.83955706407731       -0.13418547238127
C           -1.67242818538294        2.08261839122178        0.16992379488830
C           -1.72695964202725       -0.29676650182563        0.02717979319346
O           -2.92985959837472       -0.27141816590434        0.16280774410688
N           -1.03530048435438       -1.51283974676153       -0.05317031363129
C           -1.85510489509979       -2.69592511670585       -0.18250555150427
H            4.01911087665447        3.06103029095357        1.18158726103948
H            3.49530413215833        2.94427482893816       -0.56632273325442
H            2.24210490241933        2.75390385467075        0.77074143977186
H            3.39026468884205       -2.37843759727932        0.06321412325368
H           -0.96007161203976        2.85611690088232       -0.06239250173929
H           -2.55145141060484        2.22342362962606       -0.44393157820366
H           -1.95143962709919        2.09242319070728        1.22925861565358
H           -1.95106429512360       -3.26758993108397        0.73988015649925
H           -1.55818714813346       -3.35556281999136       -1.00187718491213
H           -2.86072945133591       -2.32814356488212       -0.38880164158029
H            1.07038065431532       -3.45513638090444        0.18547962688701
