25
 energy: 17.385700774387 xtb: 6.6.1 (8d0f1dd)
C            3.04939939482133        1.47280293124144        0.10693431010725
N            2.42986341394564        0.05906560070140        0.03273963568838
C            2.70573966181071       -1.34237743054541        0.09267812611274
N            1.50141824500066       -2.06160637981243        0.05217099031159
C            0.46108034004395       -1.19858444522861       -0.00485603353893
C            1.02633598672574        0.06716483648873       -0.02198692215672
C            0.20816547121171        1.18954154993203       -0.16201429890719
O            0.56895595927725        2.33986555941237       -0.43982708412167
N           -1.18766828554413        0.94467682793939       -0.04409803231613
C           -2.04691623607010        2.11609739686485       -0.02979534011395
C           -1.76796688466172       -0.27406090598738       -0.05335966381213
O           -2.96986327942294       -0.42413266726774       -0.05719795737934
N           -0.90638494100806       -1.39482469479775       -0.05034723209405
C           -1.58801535289455       -2.67027585594805       -0.07601587937176
H            3.60201106566070        1.71385233966096        1.02341037484232
H            3.76831163652943        1.67070381799598       -0.71564859268638
H            2.20643787068762        2.16902887919393        0.04611716771512
H            3.61716374613655       -1.89987136268178        0.07698591071084
H           -1.44348230576082        3.00685167278360       -0.03048369062006
H           -2.64516688324928        2.16658861440975       -0.92309059607196
H           -2.62711370393507        2.15051235048455        0.88174367301654
H           -1.38566790542045       -3.25220819394581        0.82491246780904
H           -1.32504271188491       -3.24589567083737       -0.96401906569003
H           -2.65784764554396       -2.42827723708706       -0.11285759976334
H            1.40765671460990       -3.07142053334811        0.06009286762277
