25
 energy: 44.476020967307 xtb: 6.6.1 (8d0f1dd)
C            3.02967104351791        2.10441654480705        0.30725640175216
N            2.40529883192821       -0.21220168945579       -0.19740092080536
C            2.61757613133494       -1.46164805172608        0.10521588070920
N            1.45810806906729       -2.20843123223191        0.19934106784368
C            0.43941101812162       -1.33195801744207       -0.03218257281138
C            1.04824616282024       -0.09977741806256       -0.23891053031207
C            0.27383861956065        1.07628484503653       -0.49556961803210
O            0.65496513068311        2.11180358001340       -0.99056706645062
N           -1.07398795084504        0.88982807036671       -0.09685809902300
C           -1.87546975792819        2.10299319831895        0.02355040064721
C           -1.71393038574482       -0.32025843943404       -0.03771031857632
O           -2.92067091022208       -0.37468805115312        0.07626427803434
N           -0.92521970518359       -1.48675285798943       -0.07516812346834
C           -1.72081196157197       -2.70103718306644       -0.10648820728138
H            3.79032465605165        2.22273836197952        1.01234200267413
H            3.34873426163636        2.25393332216346       -0.72302338942856
H            2.03909188406332        2.32310726825201        0.57669452820274
H            3.56083068878408       -1.93457265921943        0.30547068603100
H           -1.24092572419253        2.95820480700898       -0.04890668157284
H           -2.59567997684225        2.19225174365600       -0.75493306373705
H           -2.33498174753104        2.16851062015969        1.00193695417243
H           -1.60642893449853       -3.29753674305001        0.80297661865788
H           -1.50091328463945       -3.31559024763813       -0.97942622207638
H           -2.75959836721174       -2.32969763967028       -0.18819829177654
H            1.46557965577016       -3.21314581067812        0.28942689579063
