25
 energy: 29.937596447170 xtb: 6.6.1 (8d0f1dd)
C            3.67128288678898        3.69096944441729        0.22499508044399
N            2.29819936963473       -0.91015802471246       -0.01785976483549
C            2.29776471076564       -2.19998835087639       -0.07452943865671
N            1.02624788155659       -2.72754244492547       -0.11886179118908
C            0.18625026443228       -1.66108973216515       -0.08656527651293
C            0.98695125112407       -0.52900888600344       -0.02368280311592
C            0.40861339122116        0.79140305840769        0.02723037949746
O            0.98957172079934        1.84899670885354        0.07674681258542
N           -0.99762230805259        0.73437488020521        0.01382771320277
C           -1.72417851956699        1.99605034722751        0.06983769720064
C           -1.79881767026041       -0.38496194177459       -0.04070103729912
O           -3.00642029722877       -0.30804382562539       -0.03904860085191
N           -1.16803256662477       -1.62817912635101       -0.10184739415311
C           -1.97020229284275       -2.82995659006119       -0.17399884842645
H            4.02634832400248        4.04213684871565        1.17108995211746
H            4.24704227974572        3.87966132912521       -0.65668184496033
H            2.74985962077803        3.15139838229384        0.16085829039573
H            3.17707407668915       -2.81127715737518       -0.08396142321521
H           -0.99832022075905        2.80618594814345        0.06650034588101
H           -2.38845212767140        2.07624438031052       -0.79005120664445
H           -2.32901926640577        2.03485530818654        0.97565477685423
H           -1.80704888386672       -3.45583487618524        0.70525044352355
H           -1.73397965655734       -3.39293663460308       -1.07861926562651
H           -3.01438935305479       -2.52129297518717       -0.20417823877538
H            0.78349169034188       -3.70297728128483       -0.17437064523765
