25
 energy: 42.637159057516 xtb: 6.6.1 (8d0f1dd)
C            3.03903052899125        2.20420405604364        0.39308802344540
N            2.40266102426016       -0.27039382721260       -0.25052421109951
C            2.60055741468485       -1.51447530114563        0.07483623976810
N            1.42614052629807       -2.23675633942621        0.21352111003603
C            0.42170337237717       -1.35631711427044       -0.04647261582146
C            1.04837708723198       -0.13923858017508       -0.28252483096994
C            0.28691970500210        1.04190067887513       -0.56596127759683
O            0.68270159588915        2.04630834791596       -1.10506902568254
N           -1.05265001780153        0.87472141781250       -0.11494528375490
C           -1.83843537668917        2.09423004898345        0.04113451099269
C           -1.71087301924201       -0.32381941849596       -0.02567328115313
O           -2.91559967285595       -0.35962815525279        0.11425690653368
N           -0.94196471400043       -1.50306395395536       -0.08510354531102
C           -1.75575113781891       -2.70477026441946       -0.11664857545319
H            3.89574357991097        2.25739367957161        0.99880551552129
H            3.22451976085991        2.33696425154282       -0.66547564040932
H            2.05039503080192        2.34938219410217        0.72864722239160
H            3.54360592444090       -1.99034999456520        0.26789756751604
H           -1.19653317799118        2.94259725331638       -0.05482670530773
H           -2.60307929048428        2.19402395433966       -0.69413135406668
H           -2.26153000797148        2.16104044702248        1.04000501299762
H           -1.66177536789585       -3.30258055581255        0.79623533077063
H           -1.54450863799214       -3.33019388895761       -0.98386159062846
H           -2.78559113427922       -2.31024185833612       -0.21659370049155
H            1.40573212321373       -3.23933874877951        0.31739769014613
