25
 energy: 31.101045038792 xtb: 6.6.1 (8d0f1dd)
C            3.58061647918572        3.53067927823160        0.28888816540272
N            2.31993100636002       -0.83375799321153       -0.10738684151525
C            2.34143824977774       -2.12271487629821       -0.06546563027995
N            1.07479382548032       -2.67459452687835       -0.06472185877549
C            0.22010132408526       -1.61722192281069       -0.08514359275139
C            1.00380751862322       -0.47636999652730       -0.10582913611734
C            0.40533543585654        0.83057912731571       -0.11159324135687
O            0.96951370992482        1.89347728059274       -0.18868514433387
N           -0.99793865336731        0.76567136352478       -0.01238513640881
C           -1.70596312715177        2.03876758936703        0.09965537427873
C           -1.78774490233398       -0.36133152162863       -0.03043872883684
O           -2.99888982343175       -0.30786700261162       -0.02334084587567
N           -1.13566486197215       -1.59211541805089       -0.08205249652628
C           -1.92990215560200       -2.79392119279944       -0.16600952420918
H            4.05152520659079        3.79217734008414        1.20561616539190
H            4.04919145336300        3.66104476404377       -0.66080644619673
H            2.62017479610302        3.07285844814100        0.31001560254118
H            3.23266302794780       -2.71636513685499       -0.05203220672431
H           -0.97112045151810        2.84681584901084        0.01857719729320
H           -2.43693034245025        2.12550591390045       -0.70301603779014
H           -2.22501996304489        2.06837963187467        1.05898776591804
H           -1.80562937057058       -3.38037212608489        0.74272267232680
H           -1.66112843577642       -3.37166877585359       -1.05306703144390
H           -2.96850712343582       -2.47726878888139       -0.24274325839442
H            0.84340432283954       -3.65743833474510       -0.06767947888800
