25
 energy: -42.151435232785 gnorm: 0.004584240157 xtb: 6.6.1 (8d0f1dd)
C            2.78526266208122        1.26985918859480        0.52341874659349
N            2.21524846972153        0.21664105853043       -0.00190113687476
C            3.00701961416256       -0.72697639641894       -0.69622472415793
N            4.24510809395336       -0.70895713936252       -0.51960651056931
C            0.22910010812597       -1.19049544592416        0.13521233370379
C            0.82215516830796        0.03536071338245        0.03151325502982
C           -0.01701311431583        1.24111971829101       -0.07011629118095
O            0.43631393468369        2.35637901376186       -0.20312730609284
N           -1.37371776490269        0.99507895427955       -0.02190885399577
C           -2.28201244298629        2.13084182015171       -0.06873410278282
C           -1.97620421743266       -0.24074205064788        0.11494482317484
O           -3.16631290338172       -0.37333908495885        0.18503562815736
N           -1.10387930735807       -1.33956529780213        0.16595566265772
C           -1.69630249537989       -2.65457212740885        0.31189281642516
H            3.84570731332088        1.39612178516157        0.36686094371789
H            4.83478186810226       -1.36648891061859       -1.01357618546311
H            2.22358208477119        1.98948638637552        1.09233432307246
H            2.42376080446248       -1.38864581121719       -1.34287469166466
H           -1.69918549082105        3.03116114273353       -0.25068009367476
H           -3.01522674924708        1.98322377344454       -0.86133454536682
H           -2.81579451126475        2.21275784162435        0.87915933893554
H           -1.37116695701591       -3.11808591750879        1.24386291150562
H           -1.41892883666234       -3.29346207632112       -0.52678126257354
H           -2.77958626009425       -2.53775171136671        0.33051244146698
H            0.80772244325991       -2.10071088518269        0.22733409785502
