  72
        -99.33089251
 N         -1.6866641588        2.9069854490        2.5094947063
 C         -1.8105698410        2.3303006639        1.4091086392
 C         -3.1068039105        2.2842237614        0.6360456870
 C         -3.5236080807        0.8123556404        0.4888701972
 C         -4.4134388547        0.4393000918       -0.5154537292
 C         -4.8306161703       -0.8757079988       -0.6535153539
 O         -5.6751293886       -1.3285044262       -1.5981722695
 C         -6.2102536464       -0.4266618117       -2.5382275922
 C         -4.3497933779       -1.8613765726        0.2536981973
 O         -4.8077108108       -3.1105918282        0.0487494923
 C         -4.4408398287       -4.1347857710        0.9440599344
 C         -3.4696570694       -1.4739700265        1.2534323211
 C         -3.0587455560       -0.1521838362        1.3682744080
 C         -2.8200003694        2.8519522666       -0.6945753883
 C         -1.4068402029        0.2187382366       -2.1704032508
 C         -0.2084725164        0.4716567618       -1.6282657065
 N          0.4541558761       -0.2968579501       -0.7203260384
 C          1.8380574393       -0.0269209770       -0.4374241437
 C          2.7986638684       -0.6630483673       -1.4681334494
 C          4.2216573392       -0.4421652960       -1.0501030784
 C          4.8370137148        0.7867912503       -1.2514043500
 C          6.1346595325        1.0119244355       -0.8231140898
 C          6.8520062338        0.0094361935       -0.1821015154
 O          8.1089836603        0.1153420749        0.2803427877
 C          8.8015082353        1.3337680158        0.1324011570
 C          6.2350400869       -1.2587736647        0.0190640271
 O          7.0023699645       -2.1772593805        0.6329103603
 C          6.4958761450       -3.4746589133        0.8424230879
 C          4.9310949602       -1.4555370854       -0.4117387338
 C         -0.0757871155       -1.5806933590       -0.3409334154
 C         -4.2944474615        3.0533834348        1.2992191018
 C         -4.6920788013        2.4643350652        2.6463565522
 C         -3.9694739060        4.5369291786        1.4425256698
 H         -4.7878617367        1.1874935201       -1.1928476164
 H         -6.8261797224        0.3375555530       -2.0555761312
 H         -6.8337958116       -1.0280528473       -3.1962521060
 H         -5.4225447162        0.0543473386       -3.1259608179
 H         -4.7418834609       -3.8985724497        1.9688105201
 H         -4.9743248091       -5.0217816774        0.6071242162
 H         -3.3635192431       -4.3268372375        0.9138758185
 H         -3.1011540586       -2.1967660492        1.9636563552
 H         -2.3894653632        0.1154648582        2.1707654561
 H         -3.6136465840        3.2315336295       -1.3086398390
 H         -1.8151589007        2.9460362787       -1.0551692944
 H         -1.9738736916       -0.6691002873       -1.9657614952
 H         -1.8417677007        0.9213146415       -2.8553824570
 H         -0.9919373763        1.8211520185        0.8768454510
 H          0.3138675970        1.3829997966       -1.8883305905
 H          2.0765438908       -0.4148924604        0.5566788451
 H          1.9983111228        1.0543734307       -0.4265474785
 H          2.6143398134       -0.2111363266       -2.4443992250
 H          2.5888658141       -1.7308785389       -1.5373438675
 H          4.3052348913        1.5790222640       -1.7558105629
 H          6.5855886594        1.9754105761       -0.9961190818
 H          8.2890566121        2.1502498928        0.6496458075
 H          8.9330709261        1.5940609189       -0.9219573660
 H          9.7760958475        1.1724657944        0.5888575041
 H          7.2990092396       -4.0273937562        1.3258868599
 H          5.6198515304       -3.4620672895        1.4984107128
 H          6.2389953604       -3.9612890172       -0.1033396197
 H          4.4546797675       -2.4119358461       -0.2631234590
 H         -0.0253685091       -2.3021838430       -1.1621091437
 H         -1.1188877985       -1.4703439742       -0.0425054369
 H          0.4900245075       -1.9679854337        0.5030799337
 H         -5.1412031176        2.9464367440        0.6109034751
 H         -3.8648170932        2.5410190218        3.3456473705
 H         -4.9842329771        1.4210262245        2.5522848836
 H         -5.5353929079        3.0207057409        3.0478696643
 H         -3.1771832384        4.6772411940        2.1716221518
 H         -3.6477632985        4.9587769936        0.4923428189
 H         -4.8506548482        5.0751221977        1.7815817788
 H         -0.7700200810        2.9165948066        2.9455369015
