72
 energy: 30.185836787149 xtb: 6.6.1 (8d0f1dd)
N           -1.67964539081995        3.22500428123641        1.86909984105930
C           -1.83844959410197        2.38103448583943        0.95638499265493
C           -3.09498712779740        2.21272425669516        0.17727992276712
C           -3.57841115340100        0.77760579127184        0.26175052020687
C           -4.58565644433340        0.32438505921858       -0.59303786315809
C           -5.07015375508544       -0.96708933499403       -0.51477084462310
O           -6.05545965870473       -1.48608854733576       -1.29319590297958
C           -6.67153784226282       -0.65122633817551       -2.23949424969075
C           -4.54083343818586       -1.85401583097300        0.45013224086205
O           -5.08431427858012       -3.09793315390282        0.46119348095006
C           -4.65804306557368       -4.01143667548906        1.44209976368817
C           -3.54050039675070       -1.40242244517334        1.28985749617942
C           -3.06763308395296       -0.09871597214006        1.19940228486626
C           -2.66901824332676        2.54845063206859       -1.26966881420247
C           -1.82094549316932        1.48003979487310       -1.96173794795518
C           -0.35868031506212        1.39138421920606       -1.55641344667817
N            0.41286441891048        0.42166885512770       -1.32554800319727
C            3.11542683286771       -0.71127678588283        0.55703378350918
C            3.37757662891583       -1.04120027212163       -0.84801607097849
C            4.65943881466918       -0.74933692894729       -0.11920440446959
C            5.30692640249585        0.51881473666510       -0.36233540492688
C            6.65520828321080        0.67427461379185       -0.17391786669189
C            7.45851349048227       -0.38923704474727        0.21393824845150
O            8.81286237354980       -0.35709893898077        0.34221447153344
C            9.48362564806910        0.84819841281746        0.09092766822651
C            6.84473886908663       -1.64872048682976        0.46285276829119
O            7.70917907030588       -2.62570255798272        0.83835772738855
C            7.20757250226480       -3.91242294741029        1.07830827354196
C            5.50966592595471       -1.82246612906489        0.26873204946542
C           -0.17924168059854       -0.89474423607168       -1.28262121028486
C           -4.24275061232823        3.12931390172125        0.65676289199444
C           -4.65685144199614        2.78619812815743        2.08981117757000
C           -3.90889479291097        4.61497109432432        0.56408809778156
H           -4.99425190957949        0.99875125365601       -1.32695334758489
H           -7.15565253304860        0.20634174628041       -1.76010114250225
H           -7.43091678457536       -1.26860231716414       -2.71480626455271
H           -5.96483713056129       -0.29810485425546       -2.99995655328588
H           -4.84813288412824       -3.63239470775747        2.45055120690187
H           -5.25381892553938       -4.90911031107383        1.27910496890034
H           -3.59606791258719       -4.25927707677080        1.33735869768496
H           -3.11999204528270       -2.05215776700192        2.03978556840652
H           -2.30378177684818        0.22537048122145        1.88954128666001
H           -3.57201531432236        2.69533551899343       -1.86374883715993
H           -2.11813136348579        3.49198396416130       -1.26895453933742
H           -2.33560968710377        0.52460464809777       -1.89776430121721
H           -1.78232947716099        1.77010227670274       -3.02827777005179
H           -1.04172516169958        1.76547691073847        0.52563715655444
H            0.11691749639785        2.36021319399848       -1.66420809004580
H            2.80209123094334       -1.47675405013267        1.24871289640840
H            2.78807408670523        0.31020605938659        0.76679570462928
H            3.22784773041934       -0.39639165490477       -1.69396691171231
H            3.23366312230901       -2.07059160721208       -1.09949940570210
H            4.70916550447432        1.35492796232242       -0.69843454318222
H            7.10476586127918        1.63502271020114       -0.37219831030035
H            9.14776682761262        1.66750323911900        0.73527615966257
H            9.39808978063801        1.14568737731272       -0.96289738195935
H           10.52440443790552        0.63744589530830        0.31821980573176
H            8.07695420662953       -4.52110964511451        1.31381783654390
H            6.52365629376522       -3.93031532780256        1.92994214051912
H            6.73083853513957       -4.33333120738999        0.19113127745449
H            5.02951711673731       -2.76708680691097        0.43494067507721
H           -0.09329386315305       -1.33721746343733       -2.27062279271191
H           -1.22564049312468       -0.88338880200166       -0.96192744719801
H            0.34846074672884       -1.52785775797751       -0.59519425788137
H           -5.09237973152040        2.92625329758198       -0.00412860066685
H           -3.83832794116816        2.99677836448317        2.77461573284835
H           -4.93509479155425        1.73763483495007        2.18061017776327
H           -5.51120605492320        3.39155567292811        2.38175878003094
H           -3.03685678576065        4.83930905896832        1.16756525476032
H           -3.72758816827901        4.92366585858231       -0.46124498546789
H           -4.74498952996717        5.19411029945630        0.94593659787444
H           -0.77852501136984        3.27818365275830        2.33941661335235
