72
 energy: 23.692499698134 xtb: 6.6.1 (8d0f1dd)
N           -1.72931343989440        3.22452234399756        1.87482593247057
C           -1.86879554106000        2.39584652763312        0.93959764847655
C           -3.14516302868728        2.23492809705328        0.17246066870268
C           -3.62551453716715        0.79853851641235        0.25680397488854
C           -4.63585840184045        0.33653953543313       -0.59011685356479
C           -5.10779730524385       -0.96011430943266       -0.51185143444564
O           -6.09110477051163       -1.49262295298667       -1.29016145524479
C           -6.71826810316663       -0.66759636564024       -2.23789005584699
C           -4.56349979180952       -1.84110193218775        0.45028182312337
O           -5.09710732046595       -3.09593081725341        0.46059082196297
C           -4.65357604104534       -3.99989849780456        1.43955487778857
C           -3.56572273899866       -1.38093342912215        1.28858416152989
C           -3.10420343946897       -0.07346557091486        1.19308934739951
C           -2.75412168615013        2.58487716364784       -1.28503510685163
C           -1.93097186324836        1.52196735975123       -2.02703394094864
C           -0.46367400062210        1.45782315804467       -1.66280508249124
N            0.28977272751713        0.49308705841088       -1.38970172870599
C            3.33126210391149       -0.72298825949933        0.61214043421930
C            3.46028080103913       -1.10641512135326       -0.80664079090767
C            4.74284836028907       -0.79364156373774       -0.09900551960417
C            5.37868406853849        0.48337580240275       -0.28840348703007
C            6.72305466462159        0.64603675887253       -0.12023609242525
C            7.53981062616731       -0.41907751314673        0.24184872353732
O            8.89830371687932       -0.37961802610876        0.32073198604485
C            9.55927621929416        0.83301366075769        0.06334481583276
C            6.94035150842215       -1.68911164763373        0.49337257612791
O            7.83108423189885       -2.66051381783203        0.82280264754697
C            7.36403056899310       -3.96155682790638        1.06682074521613
C            5.60483446589705       -1.86988060299903        0.31874767823915
C           -0.21590462127297       -0.84963650196891       -1.34871417560314
C           -4.29911362048651        3.14093476599667        0.67697193231981
C           -4.68215352521014        2.79343966262922        2.11854727972475
C           -3.99616765834179        4.63350674141040        0.57713693220524
H           -5.05251149809279        1.00695283667865       -1.32396832070404
H           -7.20967740656790        0.18928152146576       -1.76450771121159
H           -7.47143052919560       -1.29749167605251       -2.70705645283622
H           -6.01629714010789       -0.31291745025011       -3.00134895835412
H           -4.83652985875410       -3.62351438675068        2.45232913556953
H           -5.23871573626920       -4.90506208754006        1.28197607512211
H           -3.58986805763883       -4.23635901299508        1.32703350248270
H           -3.14012938821780       -2.02724310699797        2.04134367473901
H           -2.34103338438451        0.25787138691688        1.88037845793136
H           -3.67117753370978        2.74284999174672       -1.85750172977386
H           -2.20103058978354        3.52774718564033       -1.28444589015467
H           -2.43105234266298        0.55789817401688       -1.95005282740856
H           -1.93749637155669        1.81531507031639       -3.08323616285211
H           -1.05693530296059        1.78776544288694        0.52344899493204
H            0.03129256343546        2.42028312474130       -1.71437488665009
H            3.02437600087656       -1.50281861806674        1.31558109507611
H            2.90864407990661        0.24454795458627        0.83505449780215
H            3.21407557886064       -0.43700809451621       -1.60978442936003
H            3.31973751252622       -2.14793820268428       -1.03060096270674
H            4.74752691803976        1.31033673389378       -0.56826175075782
H            7.15962640132424        1.61176438220960       -0.31292515244140
H            9.23896579412024        1.63991554085832        0.73011624715111
H            9.44327623649698        1.14829451069940       -0.98236886700293
H           10.60873916140476        0.61701612653577        0.25183661082520
H            8.25901366009655       -4.55202621036269        1.25535537994277
H            6.71808973647871       -4.00826193448600        1.94710905176822
H            6.85835340165115       -4.37899975514619        0.19302434517003
H            5.13683713358914       -2.81778187748130        0.51301748810151
H           -0.08703165612274       -1.31399352093819       -2.33043811860389
H           -1.27124734490692       -0.85731323134988       -1.08881575471312
H            0.35428948722497       -1.38548567435030       -0.60071742951723
H           -5.16209434382941        2.92581228563538        0.03548090232694
H           -3.85481513099479        3.00843135945352        2.78958795834981
H           -4.94680566783481        1.74166862199602        2.21499795550103
H           -5.53845204740617        3.38926140058990        2.42876740087034
H           -3.11343161399494        4.87476419199149        1.15797754572284
H           -3.84864458014972        4.94860876235808       -0.45218393932686
H           -4.83224184075550        5.19723622346998        0.98318791446112
H           -0.77376418102603        3.27425726318305        2.24230496659828
