72
 energy: -4.404718150038 xtb: 6.6.1 (8d0f1dd)
N           -1.52888601456343        2.84213244026082        2.21287983718514
C           -1.59797681618618        2.18291837403819        1.14446973473413
C           -2.78703047687776        2.07861600731814        0.23995231961788
C           -3.34648217459850        0.66458940475117        0.32126464202821
C           -4.33684138626113        0.25629944886629       -0.57505639149029
C           -4.87550744880221       -1.01519918666099       -0.52691293990825
O           -5.84607861382676       -1.49074185037009       -1.35797873640855
C           -6.42808017972393       -0.61429777476116       -2.28805711207441
C           -4.41525593593125       -1.93207025149531        0.44395737231818
O           -5.00527324652880       -3.16163947217125        0.41558706066976
C           -4.66292440525743       -4.09041705366667        1.41133217316794
C           -3.43685535563578       -1.52688908121850        1.33155619949038
C           -2.90940678144904       -0.24181737418853        1.27007415105936
C           -2.24213993713173        2.32511363242405       -1.19365764781794
C           -1.29930321078818        1.21436545516255       -1.70749782612024
C            0.00285590828405        1.16196500572482       -0.95997966002588
N            0.67924807223257       -0.03081972625014       -0.66328386286076
C            2.02599039943210       -0.11798989112719       -0.12055567734907
C            2.98800172606350       -0.59877197099314       -1.22473469488964
C            4.40645514601753       -0.47330225123307       -0.76852901290780
C            5.10322113553049        0.70405572305392       -0.96538745819736
C            6.42060526548898        0.82472006501240       -0.55129758330727
C            7.05342726924452       -0.23086562034482        0.07769284323375
O            8.34226402727575       -0.22813084863607        0.51691644709948
C            9.11998314889324        0.91924639984282        0.29500829880105
C            6.34096017905068       -1.42894410163275        0.30341084098843
O            7.04391510776116       -2.41290845200414        0.92776743304114
C            6.42154752989071       -3.65131979728937        1.14493728063105
C            5.02925243925139       -1.53165888784931       -0.11533387720520
C           -0.06305006107918       -1.26348790176583       -0.70550702244381
C           -3.91572402446435        3.08363921779552        0.58793661285277
C           -4.51653393544921        2.77754968001206        1.95826500556891
C           -3.45514584629182        4.53888062938196        0.54962217603339
H           -4.69756226600469        0.95089729351787       -1.31663981285460
H           -6.88479553361985        0.25239333452068       -1.79746363898805
H           -7.20412431537203       -1.19352586952817       -2.78642186712368
H           -5.70217068668621       -0.27085395370811       -3.03320041683013
H           -4.87773376104492       -3.70616261892161        2.41392103566095
H           -5.28593353544412       -4.96309049476501        1.22051696995691
H           -3.60817058910010       -4.38176847514926        1.35325791287459
H           -3.07331271264490       -2.20038219266822        2.09065269005205
H           -2.16140493744586        0.04632398034932        1.99231139197115
H           -3.08490746523069        2.41589367768110       -1.88150400722577
H           -1.70704604177604        3.27521752328658       -1.20758831375913
H           -1.84595912821583        0.27278894237914       -1.66246039057296
H           -1.09190084896867        1.41746307179508       -2.76674795704704
H           -0.73601001669779        1.65912388028991        0.66684552245420
H            0.62758872494856        2.03494850258400       -1.04498930616705
H            2.13735059081684       -0.78230531466416        0.75095177726159
H            2.34131196443978        0.88987148976176        0.18287848857611
H            2.82108808991617        0.01416920495557       -2.10994717692194
H            2.74922979583450       -1.63365730827953       -1.47142808519922
H            4.62779346034090        1.53799388428007       -1.46039019439455
H            6.94623720091219        1.74694690271702       -0.73911325044008
H            8.70940257776176        1.79510055478320        0.80750807825216
H            9.22372406004864        1.14069182196825       -0.77342161450625
H           10.09783565395463        0.68812374484675        0.71296551528688
H            7.17624990628385       -4.27685365466772        1.61849378442038
H            5.56279857759782       -3.55817633336141        1.81619347403337
H            6.10574951870702       -4.11909419482836        0.20617605254321
H            4.47439758395472       -2.44251675279131        0.04691923381084
H           -0.21480500493730       -1.59704760981131       -1.73501479918013
H           -1.04010241093118       -1.19360227749446       -0.21324152834676
H            0.51314950639129       -2.01642522294651       -0.18663151364686
H           -4.69927492489159        2.95746925491151       -0.16754870912805
H           -3.76382815722412        2.91712265536909        2.72668635143445
H           -4.88302321555269        1.75460668473834        2.00303646388272
H           -5.34592748908052        3.45285034033836        2.15452700331458
H           -2.65166237822952        4.69642211132186        1.26068805898455
H           -3.11982111426731        4.82774090513433       -0.44254776418605
H           -4.28431126189646        5.18744129019675        0.82318798143880
H           -0.62644131860179        2.82892272750939        2.68210054081122
