72
 energy: 3.649509526077 xtb: 6.6.1 (8d0f1dd)
N           -1.56473999381510        2.91376732681071        2.18394193179648
C           -1.64213906262038        2.22501284589545        1.13280180319395
C           -2.82792468532609        2.09934213904667        0.23347078065234
C           -3.37643746561978        0.68185215793029        0.31483581780222
C           -4.36986253987512        0.26702496237634       -0.57536746737253
C           -4.90169698153371       -1.00772411508015       -0.52403844863350
O           -5.87303220712839       -1.49119299090901       -1.35112553628740
C           -6.46050571386687       -0.61809226395116       -2.28024298464458
C           -4.43158297484515       -1.92108177025642        0.44443249027135
O           -5.01873129083728       -3.15401773257100        0.42201870496822
C           -4.66330870124290       -4.07953426373235        1.41602739989125
C           -3.44950179469870       -1.50982052016697        1.32561940717683
C           -2.92996038479324       -0.22203657891598        1.26137839684975
C           -2.29102085675750        2.35285952138041       -1.20320148187334
C           -1.34501173387039        1.25203941309349       -1.74891582899424
C           -0.00844956960019        1.20259567149404       -1.03386417794521
N            0.71406274190249        0.00100533459618       -0.75609641146828
C            2.05800448743498       -0.19262001344726       -0.07667594183554
C            3.03775154157372       -0.65389095061791       -1.16639746803040
C            4.45105458089691       -0.50989717246705       -0.69523963439541
C            5.12827106359793        0.67995981847136       -0.88656268631442
C            6.45277016021527        0.80861322883740       -0.49881294853034
C            7.10908100306780       -0.25202113950118        0.09613077086654
O            8.40823022715862       -0.24482553910913        0.50213376619193
C            9.16927682080554        0.91089610925492        0.26884106911679
C            6.41175558798350       -1.45724840246776        0.32401139086522
O            7.13494193302156       -2.44312198684777        0.91974053868185
C            6.52603649654840       -3.68763208267160        1.13573834365088
C            5.09263061864809       -1.56838756830542       -0.06792885258454
C           -0.07337869016324       -1.21882942356331       -0.79136377557302
C           -3.96276594716284        3.08943757892675        0.59275512026900
C           -4.53838262998612        2.77790218938194        1.97295031885313
C           -3.51767975907321        4.54871938504995        0.54893869131650
H           -4.73620265260138        0.95758243025278       -1.31820021522634
H           -6.92031012612053        0.24703412359754       -1.78892157659615
H           -7.23509933073299       -1.20040263513951       -2.77714786327593
H           -5.73701397561820       -0.27195609948576       -3.02662799321859
H           -4.87410200445523       -3.69511722334391        2.41911399552307
H           -5.28215810359116       -4.95679170404021        1.23120776043602
H           -3.60687375752829       -4.36429193728369        1.35308944361151
H           -3.07409779099387       -2.18145042739609        2.08008396393237
H           -2.17569475147858        0.07022864519116        1.97509645876322
H           -3.14467684872778        2.45172324077166       -1.87714927743752
H           -1.76100763709008        3.30502237793806       -1.21294537074916
H           -1.89501574530562        0.31252436181673       -1.70086186702209
H           -1.18137100608262        1.45932312753808       -2.81574322952677
H           -0.78939388965651        1.67134933957837        0.68965298995132
H            0.59907889038301        2.08432103543461       -1.14945585558323
H            2.13352161894568       -0.90491805245135        0.77006215009182
H            2.38508194115747        0.79991017130248        0.26694991545251
H            2.87882664726715       -0.04090144879256       -2.05148883702530
H            2.81713602078369       -1.69005015145913       -1.42321379497573
H            4.63262623068230        1.51684864039639       -1.35796146242520
H            6.96566045327568        1.73795228107872       -0.68729145038395
H            8.76612664947026        1.77943610206455        0.79817671666118
H            9.24419009899772        1.14228189952762       -0.80055362354411
H           10.15751220130397        0.68509942653196        0.66295360726774
H            7.29503011123829       -4.31695835871946        1.57991987665929
H            5.68872130210054       -3.60617802303963        1.83336111948904
H            6.18918191124185       -4.14591272166085        0.19982725487990
H            4.54857500435146       -2.48503274867034        0.09603091092362
H           -0.20530081647619       -1.56803005941892       -1.81610712268965
H           -1.06253983282913       -1.14591550946078       -0.31865696531430
H            0.46296541623911       -1.98219143220531       -0.25452177693962
H           -4.75449088893137        2.95466722834592       -0.15195041704081
H           -3.77513302326401        2.93021343149079        2.72827502209828
H           -4.89054433876936        1.75003822824419        2.02596102238892
H           -5.37152341667821        3.44448166479609        2.18219094995982
H           -2.70440792426574        4.70935524955178        1.24669334484990
H           -3.20131502267691        4.83917685230774       -0.44859656497048
H           -4.34724770660057        5.19024141538633        0.83718180077113
H           -0.65353209337614        2.89177370956389        2.63560778673335
