72
 energy: 10.356378007048 xtb: 6.6.1 (8d0f1dd)
N           -1.58161682519638        2.94721176820666        2.16722662356364
C           -1.66368847473102        2.24665480090025        1.12343144674646
C           -2.84952831303181        2.10973155073037        0.22920148635763
C           -3.39195682883721        0.69030358852187        0.31131772209340
C           -4.38701292978099        0.27220147549429       -0.57566223336559
C           -4.91534296860559       -1.00409324210183       -0.52242867611259
O           -5.88722627251808       -1.49112898066722       -1.34722170819297
C           -6.47687312876288       -0.61957460510217       -2.27612720726608
C           -4.44025232177532       -1.91557866683776        0.44506194404143
O           -5.02571138616593       -3.14982891885666        0.42575679537036
C           -4.66365342905786       -4.07452484697539        1.41819873885198
C           -3.45598835078546       -1.50123116176324        1.32255852092826
C           -2.94024314999160       -0.21211904617859        1.25655307410096
C           -2.31755809458380        2.36706969283280       -1.20906677709382
C           -1.37130103563486        1.27115339978000       -1.76902057806759
C           -0.01913063663007        1.22445143029702       -1.07080730011539
N            0.72542202631881        0.02138876806536       -0.79963123456476
C            2.08159256285214       -0.22627111263406       -0.05361321598833
C            3.06315471578220       -0.67983338957160       -1.13873071818084
C            4.47403293705911       -0.52761084115887       -0.65952107083021
C            5.14201956891776        0.66807586177376       -0.84759516544625
C            6.46973687497464        0.80038757982153       -0.47228216942453
C            7.13710992887993       -0.26261794769837        0.10580994555322
O            8.44109189624981       -0.25327903754450        0.49548967031006
C            9.19433162417119        0.90610393717994        0.25607353158702
C            6.44693277095887       -1.47142055487482        0.33444912384437
O            7.17974834024253       -2.45783256367829        0.91660121222903
C            6.57794004891168       -3.70557933838472        1.13244687164813
C            5.12443072373724       -1.58650022853026       -0.04476362166435
C           -0.07809022879592       -1.19479254304735       -0.83232081771733
C           -3.98669328935493        3.09236383667278        0.59587750339161
C           -4.54921893464194        2.77798894004812        1.98106911219982
C           -3.54923232891601        4.55358139383684        0.54915902798386
H           -4.75643182637892        0.96091103146897       -1.31869002727074
H           -6.93811639913654        0.24476951218565       -1.78449583246136
H           -7.25072190453977       -1.20327834621087       -2.77243387977153
H           -5.75432511029670       -0.27228087628903       -3.02298741875945
H           -4.87239631860969       -3.69058746539950        2.42172791015918
H           -5.28042591883691       -4.95393663750403        1.23586999745212
H           -3.60643637312794       -4.35597629373395        1.35254429899275
H           -3.07503030985573       -2.17165808513481        2.07516150524266
H           -2.18312677136721        0.08226514547183        1.96629467630271
H           -3.17642286506728        2.46886160614203       -1.87607343377832
H           -1.78940603327700        3.31990148590502       -1.21730499628353
H           -1.92169916309892        0.33203103112446       -1.71871561073217
H           -1.22722097401090        1.47978783852774       -2.83917559813646
H           -0.81674883628461        1.68263274948776        0.69080105522259
H            0.58059098734826        2.11002698613651       -1.20130953078271
H            2.13543690459596       -0.96430839291703        0.77833494057570
H            2.40916728295245        0.75797485454287        0.30809647488809
H            2.90942126235797       -0.06740111808549       -2.02462367828019
H            2.85080494253754       -1.71648871251426       -1.39997387542918
H            4.63695431934737        1.50636771705261       -1.30732274651566
H            6.97643122976439        1.73328325293399       -0.66030389346673
H            8.79557715414602        1.77150390332604        0.79338020840989
H            9.25488219454076        1.14142805438191       -0.81368939236814
H           10.18756786541075        0.68277387210937        0.63809870547083
H            7.35411832902028       -4.33614120551211        1.56201280173171
H            5.75134315421197       -3.63051056606663        1.84291602650682
H            6.23102207015995       -4.15944362407971        0.19822628272553
H            4.58546455477408       -2.50590566770356        0.11971601340546
H           -0.19766118728784       -1.55224670822463       -1.85468267212284
H           -1.07390586581573       -1.12000680534435       -0.37131233057111
H            0.43762446925229       -1.96332765268343       -0.28612913113349
H           -4.78267744793645        2.95293194017257       -0.14306214776837
H           -3.78118084861778        2.93626567768934        2.73033470069677
H           -4.89430657850602        1.74783872626536        2.03805305650808
H           -5.38417583622554        3.44011777431261        2.19680361663449
H           -2.73103219564302        4.71653114167376        1.24018587600791
H           -3.24245668976120        4.84509987234412       -0.45091868055397
H           -4.37900798693359        5.19126962915802        0.84480721942442
H           -0.66525769471628        2.92249873638334        2.60958272803817
