72
 energy: 33.825836956164 xtb: 6.6.1 (8d0f1dd)
N           -1.67022555990566        3.20684092768131        1.88180409290604
C           -1.82728984716318        2.36275674476950        0.96725135389954
C           -3.07781248344645        2.20246543557479        0.17954735483633
C           -3.56448711054794        0.76873058372636        0.26404400358783
C           -4.56999356092057        0.31984575808914       -0.59387837058679
C           -5.05825706868117       -0.96985587279493       -0.51518696446437
O           -6.04286745598812       -1.48580022539978       -1.29726318033999
C           -6.65619825169532       -0.64641481934211       -2.24088049210564
C           -4.53202088376439       -1.85767478365264        0.44967026075976
O           -5.07701336576491       -3.10078263350493        0.45865179373144
C           -4.65867891306835       -4.01577017902759        1.44226177296489
C           -3.53187631464641       -1.41017509805678        1.29145661377998
C           -3.05616029743118       -0.10817605112497        1.20221568727667
C           -2.63897674341648        2.53484594305603       -1.26657055237163
C           -1.78772935258586        1.45711925070641       -1.94307408576561
C           -0.33474066055869        1.35913238639173       -1.52583901417408
N            0.45209429186578        0.39472739992207       -1.30448011046827
C            3.04337938454923       -0.69394566182643        0.52649737946447
C            3.34758274722284       -1.01488567685400       -0.87179733928345
C            4.63916473118993       -0.72993755149308       -0.16323695237209
C            5.28888633545065        0.53494578145176       -0.39735643241643
C            6.63763113419927        0.68867129018450       -0.19432342009514
C            7.43340658952942       -0.37830627209815        0.20228021005942
O            8.78615291191674       -0.34537912831797        0.36524477133201
C            9.45970620722749        0.85410331730473        0.10363084294429
C            6.81308735808920       -1.63347690540824        0.44865932023957
O            7.66595384215122       -2.61271313558175        0.84856952247801
C            7.15459340675487       -3.89611955955395        1.08262896534051
C            5.47669397148914       -1.80211236036204        0.24355105110800
C           -0.16557159631769       -0.91747950498342       -1.24800381295618
C           -4.22257137491116        3.12514691061270        0.65091045388827
C           -4.64756446916457        2.78417505596758        2.08126357621081
C           -3.87970852879045        4.60914597237818        0.56012391937622
H           -4.97529834404120        0.99632232355138       -1.32741012310439
H           -7.13791475518133        0.21138689130613       -1.75914499623086
H           -7.41788757028913       -1.25912372086299       -2.71854692996072
H           -5.94828422214442       -0.29319675450067       -3.00037428618826
H           -4.85127964798889       -3.63543499457511        2.44931488061107
H           -5.25792947735572       -4.91147596737190        1.27939773002244
H           -3.59745223609624       -4.26692717701137        1.34135220172254
H           -3.11239212355975       -2.06192425262310        2.03949996313307
H           -2.29129213908217        0.21440049237038        1.89206580084579
H           -3.53815416553514        2.67847218583218       -1.86649861855934
H           -2.08899398003426        3.47869386725048       -1.26580502891214
H           -2.30417859452844        0.50403159888804       -1.88777714395213
H           -1.74033140806466        1.74035196461933       -3.00708082150604
H           -1.03207453587330        1.76372351889103        0.49896165074808
H            0.15151673417118        2.32437412270225       -1.63284187609738
H            2.73616002076401       -1.45691763253509        1.21839535776979
H            2.76132194478086        0.33992882409585        0.73241298455960
H            3.19874353699472       -0.37041455143599       -1.72137526045704
H            3.20320996423194       -2.04395462131153       -1.12843338901730
H            4.69844942675684        1.37231703408365       -0.74564080247711
H            7.09042588939153        1.64847071429285       -0.39145138831105
H            9.11810648541688        1.67879232469011        0.73730623189049
H            9.38270208983713        1.14403822485526       -0.95339420740479
H           10.49764030447031        0.64488022937720        0.34341328356246
H            8.01544662638310       -4.51090612850849        1.33460608777390
H            6.45804352552985       -3.90595565995729        1.92392664865168
H            6.68830500934836       -4.31854966091964        0.19034673219449
H            4.99291550745895       -2.74576763127697        0.40871815173183
H           -0.09809385617860       -1.35124929996899       -2.23960203304201
H           -1.20728910809101       -0.89585857582403       -0.91328681425155
H            0.34951695827578       -1.58417359032319       -0.58200043968112
H           -5.06800132217396        2.92680011597289       -0.01670033235565
H           -3.83341585208289        2.99226542704192        2.77279702550692
H           -4.93078452357888        1.73710976817287        2.16965729924507
H           -5.50130776512570        3.39353565077943        2.36595873805453
H           -3.01186554320830        4.82852009960117        1.17136220345804
H           -3.68781401417332        4.91604809915157       -0.46397005360710
H           -4.71633128488702        5.19308287038716        0.93342969816780
H           -0.77794915541466        3.25866668029518        2.37028114124172
