72
 energy: 38.704389325746 xtb: 6.6.1 (8d0f1dd)
N           -1.67190985678851        3.09008458944577        2.00881902720772
C           -1.78752186493847        2.32492420128910        1.01950535264342
C           -3.00196583248804        2.16877202954397        0.19021637877788
C           -3.50157586156071        0.73849078813642        0.27635103233394
C           -4.50345023999471        0.30169954364968       -0.59062649710134
C           -5.00707122982594       -0.98244133810519       -0.51766087839937
O           -5.98579561653304       -1.48780595069663       -1.31792875935674
C           -6.59188711853278       -0.63343880120017       -2.25122992015402
C           -4.49777565984131       -1.87778033821103        0.44814358868245
O           -5.06130878983383       -3.11657988591460        0.44946286805682
C           -4.66341161202730       -4.03663452744532        1.43504155886898
C           -3.50086558875071       -1.44243278071246        1.30036333381297
C           -3.01086536704400       -0.14565841504184        1.21769800939130
C           -2.53000193735754        2.48857082040515       -1.25408869817832
C           -1.66904273695722        1.41481875947303       -1.91248015491417
C           -0.24843707912856        1.33232539533104       -1.44311962947291
N            0.47520532981438        0.33650227634278       -1.20356181957236
C            2.62947090216138       -0.58303531218847        0.36520954142780
C            3.25094616665016       -0.89247127789638       -0.93456768829176
C            4.62878201925923       -0.65880675278982       -0.39812025209340
C            5.23818435719407        0.58384284282479       -0.56557857542827
C            6.58541945851061        0.73567852785250       -0.28980180677775
C            7.33230468654046       -0.33690439602682        0.16373996122977
O            8.66930388205736       -0.30966693993745        0.43238753034984
C            9.36694976310311        0.87338967706369        0.16038366949921
C            6.69098502357958       -1.57241748933907        0.40520898831933
O            7.49374332448229       -2.55905800355224        0.88472943237333
C            6.94521324264075       -3.82952858966942        1.10186205674123
C            5.35149369464636       -1.71743639829551        0.13137822590319
C           -0.14789899547968       -0.99027120608329       -1.12335135498400
C           -4.14353728427746        3.11153374126133        0.62468424290690
C           -4.61830043251956        2.77998824598749        2.04029874812550
C           -3.76131449028643        4.58760111371141        0.55097866756876
H           -4.89506809862929        0.98376270649414       -1.32685866098079
H           -7.06485176011286        0.22591082281215       -1.76213059537701
H           -7.35987735976847       -1.23243933657964       -2.73697141981223
H           -5.87894336455772       -0.28145116695391       -3.00606336382787
H           -4.85993823877523       -3.65488192120831        2.44054175476872
H           -5.26835378103016       -4.92843149960435        1.26843948157232
H           -3.60319872783814       -4.29839042188666        1.34890613955523
H           -3.09117055107997       -2.10039516324427        2.04825210636877
H           -2.24784604836704        0.16695701066229        1.91416459131724
H           -3.41479357639886        2.61786052679910       -1.87273010222388
H           -1.97829051958583        3.42927047936438       -1.24782240022425
H           -2.16379421507364        0.44976426671076       -1.84361661138110
H           -1.57409124485777        1.64561406068232       -2.97906785358200
H           -0.95795778871182        1.76198041051378        0.56656350445621
H            0.32024251949571        2.26930381084632       -1.52571525990692
H            2.48054303790729       -1.34960176197438        1.09035739210494
H            2.58883531595060        0.46992459100938        0.59614350693644
H            3.08850528749460       -0.25550237404543       -1.80345407104924
H            3.08528358293252       -1.92164402909811       -1.22645068696764
H            4.67126040632372        1.42422506466321       -0.94781774815352
H            7.04972114684867        1.69039169495127       -0.48023402592420
H            9.00060033414557        1.71642368871248        0.75285416577564
H            9.33432290202796        1.13378268715816       -0.90597717758977
H           10.39197723678887        0.66528803593447        0.45394793903496
H            7.77383058174383       -4.45909155860064        1.42047267746414
H            6.19775685528991       -3.80911808603767        1.89591035409018
H            6.52327749741856       -4.25675125110106        0.18907511504131
H            4.84512606089182       -2.65291782111936        0.29873001839523
H           -0.13881501583230       -1.42367513420968       -2.11344190220863
H           -1.16640087788339       -0.97344824460672       -0.72718980936358
H            0.35086231893976       -1.69832810119350       -0.49466595607044
H           -4.97081596271816        2.93900575333340       -0.07214672385312
H           -3.82195301916223        2.97116447458866        2.75199616672486
H           -4.92119847835746        1.73826909830274        2.12034845454298
H           -5.46504525674362        3.41025505754489        2.30026606451936
H           -2.91084113984883        4.78257259148672        1.19294689641771
H           -3.52581444417899        4.88818872164847       -0.46570044497400
H           -4.59489046923265        5.19534379505512        0.89383953426254
H           -0.74847378313956        3.13169619272222        2.43434710718960
