72
 energy: 38.744453250735 xtb: 6.6.1 (8d0f1dd)
N           -1.65839272300612        3.04175243423722        2.06914468616242
C           -1.75188389385944        2.32814579666949        1.04265096616185
C           -2.95928756715422        2.15700997347004        0.20151080443788
C           -3.47017400822549        0.72949035998744        0.28992781204802
C           -4.47157942296654        0.29573255838627       -0.58192791975126
C           -4.98205285463580       -0.98736303937360       -0.51764408997687
O           -5.95821981948052       -1.49046568437954       -1.32776413936335
C           -6.55944639984932       -0.62909160181276       -2.25757467814556
C           -4.48109803161530       -1.88736542731753        0.44759722838996
O           -5.04992567006225       -3.12569029238727        0.44270279297002
C           -4.66337143038693       -4.04741097780400        1.43036390769912
C           -3.48771007794687       -1.45750287166998        1.30734062064791
C           -2.99117044860302       -0.16222387281701        1.23101462471446
C           -2.47617202670261        2.45528455983177       -1.24408080473751
C           -1.59027152457200        1.38724940936593       -1.88350439348201
C           -0.18355272666044        1.31953229825406       -1.36705726844853
N            0.51177940628350        0.28291356314402       -1.11648666153504
C            2.51216762240162       -0.50433605070431        0.27522830807115
C            3.20012917392369       -0.83483085510795       -0.99004304394676
C            4.59036592037073       -0.62166832077724       -0.47820216886472
C            5.21030966418623        0.61077712490908       -0.64557618907989
C            6.55182094089026        0.75783007921347       -0.33795345439573
C            7.27625558139905       -0.31488732209952        0.15061127968342
O            8.60627379681795       -0.29394634361328        0.45323777811363
C            9.31772104655376        0.88297249964766        0.18677864194789
C            6.62220696759046       -1.54226043852984        0.38809400311023
O            7.40555429562482       -2.53156308532525        0.89511786645169
C            6.84006227249930       -3.79522109904550        1.11030245296062
C            5.28769389665326       -1.67965817517482        0.08089194444119
C           -0.13608094339328       -1.03995429880904       -1.04907828198158
C           -4.10128562333282        3.10688850523827        0.61526046214927
C           -4.60050861983930        2.77893623416450        2.02259679857325
C           -3.70166738222450        4.57795346084741        0.54906675076885
H           -4.85588604291467        0.97727908014168       -1.32346350657565
H           -7.02823761640138        0.23173998827342       -1.76598431341537
H           -7.32947200416212       -1.22215974068683       -2.74777488711012
H           -5.84338309310809       -0.27727528836772       -3.00922769717687
H           -4.86374630360067       -3.66473387986847        2.43507066851261
H           -5.27184557091794       -4.93596071610350        1.25971941625337
H           -3.60369654296088       -4.31480786431778        1.35157863375276
H           -3.08379994288349       -2.12102683209221        2.05342008556583
H           -2.22437481297922        0.14331302664647        1.92495025465824
H           -3.35240086983561        2.57810934676755       -1.87451846941927
H           -1.92854083066075        3.39739865580217       -1.23898989669885
H           -2.08746296455340        0.42296512432579       -1.81338705260605
H           -1.48039964427674        1.59805050281883       -2.95436145623660
H           -0.91822696427864        1.76061868104915        0.61369442634110
H            0.41439422945810        2.23268545725582       -1.45096737580098
H            2.36828715088963       -1.27343053903361        1.00694405782857
H            2.52903643687064        0.54475316879537        0.51952851277557
H            3.03148218353242       -0.19958048645564       -1.85852224892280
H            3.02099644854149       -1.86510852039788       -1.27869897413079
H            4.65761032576104        1.45159563390746       -1.04757995671998
H            7.02840926938518        1.70670769112183       -0.52894368840284
H            8.94149035852401        1.73181598899915        0.76453512727304
H            9.30809150035029        1.13809863788842       -0.88228488280910
H           10.33472261384381        0.67159110215376        0.50549750444906
H            7.65302078036796       -4.42862604226439        1.46202068080895
H            6.07000351976190       -3.75746996759339        1.88291265074166
H            6.43998620852953       -4.22790906264150        0.18803303804874
H            4.77060397400329       -2.60988269118356        0.24859867654598
H           -0.16187212859337       -1.46358017424034       -2.04684611616755
H           -1.15055883523237       -1.02022602144081       -0.63049074225565
H            0.36727554507492       -1.77315583728270       -0.44593523068528
H           -4.91902687625291        2.94350933380704       -0.09411660137694
H           -3.81245659725313        2.96017700547342        2.74512639282777
H           -4.91365058446717        1.73944362864867        2.09657353281278
H           -5.44386688714535        3.41858351913339        2.27016070307844
H           -2.86013776667331        4.76053522596737        1.20520595523238
H           -3.44496755904693        4.87476295635247       -0.46352695125665
H           -4.53315430219301        5.19558435139728        0.87865457458255
H           -0.72934915873566        3.06789399268861        2.48382474473683
