72
 energy: -5.870700422897 xtb: 6.6.1 (8d0f1dd)
N           -1.51057976300685        2.80654558278973        2.22454265007488
C           -1.57422719665636        2.16471878358969        1.14620890760978
C           -2.76683966941052        2.06873801993650        0.24231410202524
C           -3.33090726051228        0.65606347235586        0.32348051371187
C           -4.31999004474302        0.25118699024459       -0.57560347141268
C           -4.86230137719890       -1.01853393024794       -0.52865163580087
O           -5.83282319065005       -1.49005033615565       -1.36117816246905
C           -6.41250123617239       -0.61262001128716       -2.29207675417968
C           -4.40712052664276       -1.93690278206027        0.44378453484109
O           -4.99863932761784       -3.16436723437442        0.41304753833463
C           -4.66247084825187       -4.09519302513798        1.40922603340866
C           -3.43005467495632       -1.53504261802067        1.33397611441430
C           -2.89841641410589       -0.25152208323848        1.27343619277631
C           -2.21841781550032        2.31246210017731       -1.18933662486082
C           -1.27930389709844        1.19594439123504       -1.68659596050237
C            0.00510366664177        1.14326946503980       -0.92530250721993
N            0.65805271409220       -0.04094922283477       -0.61021587791982
C            2.01576112154159       -0.07552982635214       -0.13997799100841
C            2.96201876884516       -0.56983007278207       -1.25269091755727
C            4.38331717671661       -0.45381820442289       -0.80435927281111
C            5.09019736139849        0.71697146581950       -1.00445081281880
C            6.40413940659859        0.83294916091962       -0.57785668841280
C            7.02500294503329       -0.22029994105532        0.06740077055526
O            8.30844072062417       -0.21981157116646        0.52331429443329
C            9.09439264250033        0.92351721556460        0.30836412408571
C            6.30504934546280       -1.41505204033930        0.29156703407816
O            6.99811607224347       -2.39791941633391        0.92976952731637
C            6.36919348000626       -3.63301762970060        1.14960310607979
C            4.99688870713440       -1.51300580516903       -0.13961919788053
C           -0.05676288139208       -1.28389591216521       -0.66384945130918
C           -3.89183879191961        3.08076257095340        0.58631599310877
C           -4.50535067711232        2.77695054303730        1.95155115414402
C           -3.42443689064780        4.53436435017441        0.55005246125426
H           -4.67742321213045        0.94793617325546       -1.31649632061951
H           -6.86804388988513        0.25477138415041       -1.80219589387938
H           -7.18922060160364       -1.19103103241121       -2.79028338933528
H           -5.68604966571384       -0.27080685469788       -3.03744921086039
H           -4.87931140248222       -3.71128749694941        2.41165345349478
H           -5.28765477473224       -4.96536800919575        1.21506444361479
H           -3.60862477695091       -4.38989065167008        1.35336255694083
H           -3.07282281104264       -2.20945176242124        2.09579338260195
H           -2.15397550406086        0.03427478464844        2.00062302694522
H           -3.05553686909746        2.39976003819788       -1.88377069556179
H           -1.67961664476143        3.26091931615303       -1.20428436651608
H           -1.82456137169056        0.25349087402325       -1.64366190228564
H           -1.04701506620534        1.39674984068154       -2.74036427832400
H           -0.71097139704848        1.65521502955569        0.65088359193338
H            0.63899754583571        2.01087062368001       -0.99447591503512
H            2.13467752569904       -0.72185310337255        0.74051860841678
H            2.32368591775110        0.93631239826492        0.14361686674962
H            2.79300191262330        0.04096009934415       -2.14014848742577
H            2.71373797814439       -1.60441964835581       -1.49181011775993
H            4.62599686106733        1.54877993916240       -1.51291631181204
H            6.93620879822650        1.75161787468434       -0.76493549471145
H            8.68044336029959        1.80308491725850        0.81259549551264
H            9.21339265820062        1.14004632216464       -0.75912550163964
H           10.06641953135857        0.68929554597978        0.73875422544786
H            7.11686582281985       -4.25556360502005        1.63832926885686
H            5.50022154668523       -3.53337288973248        1.80793685558166
H            6.06408111131823       -4.10705323486685        0.21035338391619
H            4.43720577074511       -2.42180158804376        0.01943131609036
H           -0.21861424993388       -1.60895353495425       -1.69603481160824
H           -1.02796146935324       -1.21769765974729       -0.16183649467288
H            0.53875772533211       -2.03347028062497       -0.15621148109305
H           -4.67094959419266        2.95762312244351       -0.17456636282779
H           -3.75981555536642        2.91004593333684        2.72847257521146
H           -4.87914570057039        1.75656162359766        1.99167381287131
H           -5.33312263487372        3.45627951003540        2.14019666673229
H           -2.62576564161353        4.69202116314166        1.26753312004299
H           -3.08033984397723        4.82278236192121       -0.43967530207923
H           -4.25408442922400        5.18525533009735        0.81639609239932
H           -0.61252505989348        2.80025437172507        2.70391173726938
