72
 energy: 20.886272878863 xtb: 6.6.1 (8d0f1dd)
N           -1.72292001186577        3.24868934146670        1.84876824014155
C           -1.86764773585204        2.41060489251638        0.92615678457297
C           -3.16008922648447        2.24151701550212        0.16772595431072
C           -3.63271246638972        0.79957847760362        0.25482669442093
C           -4.64408587971929        0.33939985416600       -0.59303130865345
C           -5.11565631381355       -0.95714236119184       -0.50526183520247
O           -6.09545962231795       -1.49133492341284       -1.28668883174586
C           -6.73594595559701       -0.67832477968827       -2.23497670433467
C           -4.56763919088594       -1.83874171148103        0.45471552414076
O           -5.09417408117477       -3.09453130531962        0.46426838758846
C           -4.65256752878746       -4.00500101858995        1.43843834942053
C           -3.57387167523476       -1.37571998609825        1.29628000092945
C           -3.11607531105348       -0.06801590267532        1.19770643942991
C           -2.79641809249873        2.60527500199190       -1.29972584514392
C           -1.99963426122926        1.55060177336631       -2.08155541487061
C           -0.54660235749717        1.50338168414347       -1.71667903504917
N            0.18381271218535        0.52980400351748       -1.41955969941251
C            3.35516636740518       -0.72621278173067        0.61466017595681
C            3.47173948902163       -1.12937216910163       -0.81570731811176
C            4.73908371060086       -0.79452190713929       -0.06146944531654
C            5.38944731531402        0.47335532043246       -0.31174927679006
C            6.73190518383504        0.64062335566749       -0.14897883587177
C            7.55968550275367       -0.42421632290799        0.22957693813325
O            8.91614240876666       -0.37566320413546        0.33423982161029
C            9.58330372742204        0.82598089994578        0.05976823150252
C            6.97651594217463       -1.70074262918485        0.49190299742418
O            7.88343271940748       -2.66407986933904        0.83377659970985
C            7.44023721660701       -3.97682886592108        1.06099551729592
C            5.63383019587535       -1.88011249131480        0.34501099580434
C           -0.27978539834517       -0.82143374845344       -1.33415837751183
C           -4.31940946350166        3.14242069679029        0.69389038278618
C           -4.68685233366276        2.79492091023308        2.13682017665732
C           -4.03444200467062        4.64094031692427        0.59434814001372
H           -5.07356175084067        1.01100734275874       -1.31995722290948
H           -7.23023560183021        0.18015398944951       -1.76879327626128
H           -7.48809118310442       -1.31336028942802       -2.70174967865087
H           -6.04065559445778       -0.32333994362793       -3.00325085134096
H           -4.83523202497477       -3.63227341821999        2.45194172096680
H           -5.23801922118995       -4.90899725674544        1.27855035755205
H           -3.58867475145233       -4.24078579663612        1.32576477386974
H           -3.14138275275939       -2.02183355673068        2.04345696140665
H           -2.35539441176644        0.27184036214512        1.88356561684894
H           -3.72351186512913        2.76384465749258       -1.84563916922564
H           -2.25698688461399        3.55593618990844       -1.29914629420687
H           -2.46601401661102        0.57263823150917       -1.96741814348877
H           -2.03811258452619        1.83341322135060       -3.13911373067739
H           -1.05591066776975        1.77658453147437        0.53534501835165
H           -0.05347984715474        2.47110830890571       -1.74101265183401
H            3.10145512315595       -1.51152670942843        1.33148179261647
H            2.86177676440359        0.22593553722441        0.82212864000926
H            3.14929086855713       -0.43125903257575       -1.57101881695964
H            3.34526585627845       -2.16288656856349       -1.09387548449109
H            4.75265414709629        1.29216769644147       -0.59658228318074
H            7.15589806699569        1.61302209216427       -0.34762780084207
H            9.26313557799655        1.62741519558281        0.73531740688364
H            9.43164489085891        1.14804580852157       -0.97362471265312
H           10.63879137903144        0.61431580802924        0.22389842765917
H            8.34227625128809       -4.56464777586335        1.22655363261682
H            6.79623587360710       -4.03660853716865        1.94760928945478
H            6.88697923430858       -4.37664035870739        0.20241074321144
H            5.17918583376866       -2.83629812752523        0.54266198644818
H           -0.11866172816707       -1.32517602912026       -2.28964290578277
H           -1.33313085991904       -0.91478730389401       -1.07304565067549
H            0.33433334385956       -1.32656290815895       -0.58878580315293
H           -5.19536112432734        2.92470024527245        0.07023383633702
H           -3.84817737834731        3.01100855404633        2.78935649225410
H           -4.95011042501309        1.74498481187867        2.23193748160601
H           -5.53998310000686        3.38896875912948        2.45671265685503
H           -3.14091678681509        4.88601923215530        1.16034876823688
H           -3.90463260501339        4.95854897213976       -0.43657623135005
H           -4.87419776936748        5.19425613523139        1.01089837199961
H           -0.79173480699890        3.28163315343998        2.25545815852274
