  72
        -99.26990622
 N         -1.7895470023        2.7835995829        2.5049240344
 C         -1.7543589462        2.1557717892        1.4257180104
 C         -2.9094297416        2.0419578235        0.4670369834
 C         -3.4035115376        0.6044610022        0.4352247150
 C         -4.3366237073        0.2150681860       -0.5275302874
 C         -4.8471985113       -1.0724577781       -0.5648677080
 O         -5.7699224203       -1.5244129841       -1.4338119356
 C         -6.3473360000       -0.6263595360       -2.3550705541
 C         -4.3949162031       -2.0192120499        0.3927556855
 O         -4.9122622246       -3.2689144964        0.2697453436
 C         -4.8620474191       -4.1914932808        1.1909283267
 C         -3.4637883723       -1.6300317807        1.3516571221
 C         -2.9782371661       -0.3342611115        1.3684556690
 C         -2.3540731746        2.4563179143       -0.9210422131
 C         -1.4564250281        1.4055645448       -1.6004958782
 C         -0.1255970373        1.2549943197       -0.9701957625
 N          0.4738462932        0.0985382531       -0.7046512481
 C          1.8588945350        0.0658818297       -0.2977046340
 C          2.7917576029       -0.3192429096       -1.4627054702
 C          4.2251377131       -0.2340595988       -1.0177413100
 C          4.9220930555        0.9593811672       -1.1149532186
 C          6.2346786817        1.0530783746       -0.6793601979
 C          6.8771490763       -0.0478661698       -0.1313823099
 O          8.1438647103       -0.0726396917        0.3220548905
 C          8.9274477100        1.0955830155        0.2382252022
 C          6.1693534697       -1.2773061817       -0.0253094502
 O          6.8689533331       -2.2953246387        0.5137367516
 C          6.2658985113       -3.5616115937        0.6321079920
 C          4.8569046918       -1.3460413432       -0.4659339173
 C         -0.1859511254       -1.1697857634       -0.9022610436
 C         -4.1175173794        2.9535116010        0.8433247868
 C         -4.7594958187        2.5201324809        2.1593213498
 C         -3.7541036251        4.4339992159        0.9127467844
 H         -4.6830926959        0.9349688692       -1.2491449110
 H         -6.8498321928        0.1983968407       -1.8437946194
 H         -7.0797278204       -1.2109622360       -2.9073358926
 H         -5.6011906775       -0.2315999837       -3.0494065810
 H         -4.4988435065       -4.0013107004        2.1892438964
 H         -5.6615972421       -6.9798239552        0.6939682309
 H         -5.2524917298       -5.1690850405        0.9127422390
 H         -3.1037052848       -2.3411407699        2.0778783793
 H         -2.2745295596       -0.0544634451        2.1364506704
 H         -3.1917568310        2.6624093233       -1.5868549328
 H         -1.7909036763        3.3834496972       -0.8074719597
 H         -1.9830589318        0.4550211730       -1.6574462880
 H         -1.2912477611        1.7575747765       -2.6272221697
 H         -0.8515191503        1.6481520846        1.0347432149
 H          0.4697390277        2.1467364080       -0.8418735769
 H          1.9766217599       -0.6556689747        0.5153782004
 H          2.1492154830        1.0502052510        0.0747780387
 H          2.6189117725        0.3692443488       -2.2916953974
 H          2.5612908456       -1.3306324751       -1.7992380058
 H          4.4482717011        1.8283255342       -1.5458481259
 H          6.7530566992        1.9928019562       -0.7759634877
 H          8.4958667248        1.9105868310        0.8272496922
 H          9.0526636247        1.4201475518       -0.7990725324
 H          9.8974825602        0.8265018172        0.6516606823
 H          7.0252673276       -4.2067856178        1.0695903350
 H          5.3939947005       -3.5309906038        1.2934674644
 H          5.9723117905       -3.9593592673       -0.3442774845
 H          4.3144749881       -2.2760051599       -0.3965597950
 H         -0.3560936372       -1.3671464388       -1.9630346953
 H         -1.1466499426       -1.1851030393       -0.3825585021
 H          0.4368409900       -1.9638796186       -0.4987162514
 H         -4.8608616269        2.8253386239        0.0479994528
 H         -4.0557048176        2.6459205501        2.9755262898
 H         -5.0763248559        1.4807001065        2.1220975844
 H         -5.6327407951        3.1358361683        2.3568271041
 H         -3.0003422567        4.6017290474        1.6753425414
 H         -3.3921857151        4.8097732914       -0.0404565404
 H         -4.6397555706        5.0044483130        1.1799097594
 H         -0.9396150272        2.8183518011        3.0595115318
