25
 energy: -42.236883087636 gnorm: 0.006532815886 xtb: 6.6.1 (8d0f1dd)
C            2.68103232603136        1.34389498243831        0.32487632037766
N            1.95455471039139        0.11611274421564        0.18560553157686
C            2.45196766059165       -1.12701114115899        0.13982275334699
N            1.43855791719938       -2.02000373667744       -0.02514536897894
C            0.26941716610719       -1.32124047157626       -0.08730829905758
C            0.59135788293079        0.02669790164313        0.04513860789854
C           -0.43909413817080        1.01378928195570        0.03460628975418
O           -1.71388789200765        0.47847586230589       -0.14286611380703
N           -0.23142985088202        2.25728430295672        0.17314653066387
C           -1.22222937285040        3.27024294570295        0.17608035757079
C           -2.04623667499307       -0.81351025958613       -0.28169668200270
O           -3.18106671223455       -1.14918511489683       -0.42899531198399
N           -1.00324507750391       -1.76248995408096       -0.24497085589360
C           -1.32046341974933       -3.16950938045915       -0.37626390277195
H            2.21175892538810        1.95711781348940        1.09396551614563
H            3.71500702783184        1.13629870330232        0.58905284759987
H            2.64886418298395        1.90516225872979       -0.61058740484796
H            3.48672396181973       -1.38720237855791        0.22236552967224
H           -0.70861442163295        4.22704939025632        0.07641573706445
H           -1.94880615602376        3.15011755192717       -0.63477393880434
H           -1.77406157259225        3.26250580786333        1.12061979535932
H           -1.01254222406072       -3.71399660867538        0.51731927175453
H           -0.83528732688718       -3.58905573202583       -1.25832718409028
H           -2.40116283268080       -3.25227682349608       -0.49037960210276
H            1.54931742508779       -3.02102940398559       -0.08652880654708
