  72
        -99.34048688
 N         -2.5442482283        2.8317442156        2.8881283410
 C         -2.3385060511        1.9925580387        1.9852180217
 C         -3.1258486570        1.9308651323        0.7019385016
 C         -3.8466030784        0.5952733524        0.6108086661
 C         -4.4606009269        0.2182890119       -0.5845779587
 C         -5.1012868443       -1.0030273138       -0.7157730323
 O         -5.7198667599       -1.4431433218       -1.8302619540
 C         -5.8290017714       -0.5879213574       -2.9434122709
 C         -5.1228552597       -1.9034129994        0.3849642130
 O         -5.7297007013       -3.0835628467        0.1565250852
 C         -5.7935872948       -4.0347807717        1.1933449280
 C         -4.5371309531       -1.5088453663        1.5782545069
 C         -3.9151688995       -0.2739545238        1.6898035541
 C         -2.0489461296        2.0098807073       -0.4290800466
 C         -1.2539531413        0.7559457673       -0.5277748635
 C          0.0582011915        0.6853953469       -0.2473666433
 N          0.8385903742       -0.4517226617       -0.2543631364
 C          2.2529850465       -0.2971593383        0.0291109096
 C          3.0702200777       -0.1610955782       -1.2681237256
 C          4.5357498895       -0.0631580265       -0.9491639057
 C          5.1735043276        1.1655729707       -0.8928017677
 C          6.5222758794        1.2521298490       -0.5842538299
 C          7.2608013133        0.1079601112       -0.3169255699
 O          8.5706295736        0.0709223710       -0.0157681822
 C          9.3086310972        1.2715051493        0.0005065164
 C          6.6117096443       -1.1586307028       -0.3590965472
 O          7.4001166796       -2.2143992408       -0.0823496538
 C          6.8558192380       -3.5123090199       -0.1178840724
 C          5.2633484929       -1.2191875672       -0.6737575874
 C          0.3967607366       -1.6616121017       -0.5624419299
 C         -4.1646111231        3.0744910625        0.5475095757
 C         -5.2489039846        2.9806558086        1.6189925971
 C         -3.5398137425        4.4665755647        0.5637574243
 H         -4.4391616706        0.8906799291       -1.4264919903
 H         -6.3619743733        0.3335121394       -2.6896108819
 H         -6.4030813111       -1.1431534235       -3.6828846950
 H         -4.8473691237       -0.3414436677       -3.3609498481
 H         -6.3599754257       -3.6578141454        2.0499431017
 H         -6.3095355369       -4.8942527949        0.7698181472
 H         -4.7939604697       -4.3368981968        1.5214171439
 H         -4.5629051909       -2.1578319586        2.4382517556
 H         -3.4916546486        0.0070478514        2.6409854982
 H         -2.5636001268        2.1879496082       -1.3753519262
 H         -1.3933442260        2.8582765323       -0.2315454835
 H         -1.8087597435       -0.1246008610       -0.8118302300
 H         -0.4663913431        0.4016767842       -3.4075651497
 H         -1.5359847475        1.2385075158        2.0196404749
 H          0.5945128229        1.5825509052        0.0281647365
 H          2.6021771418       -1.1706397084        0.5844151501
 H          2.4077826661        0.5872819551        0.6496040176
 H          2.7434154794        0.7279263880       -1.8094476449
 H          2.8801503025       -1.0332703162       -1.8968930175
 H          4.6227680415        2.0695745564       -1.1029893039
 H          6.9927037519        2.2211997479       -0.5575104702
 H          8.9438988221        1.9554472589        0.7726957947
 H          9.2816542840        1.7700390216       -0.9728904742
 H         10.3322954132        0.9818393683        0.2297891530
 H          7.6797786914       -4.1812636827        0.1227824385
 H          6.0623722598       -3.6348232860        0.6262884668
 H          6.4688272648       -3.7581490465       -1.1115301668
 H          4.7653235116       -2.1749242379       -0.7236619987
 H         -0.2722282542       -0.2093001978       -3.8504473133
 H         -0.6258932097       -1.8219099443       -0.8340272615
 H          1.0739538285       -2.4912744493       -0.5233387243
 H         -4.6442179408        2.9314731069       -0.4280129957
 H         -4.8169941177        3.1553215076        2.5994349818
 H         -5.7242539655        2.0025925252        1.6116745556
 H         -6.0104714963        3.7341434232        1.4363077447
 H         -3.0154293887        4.6320883965        1.4998569193
 H         -2.8518965525        4.6122845385       -0.2650533935
 H         -4.3265056295        5.2116865109        0.4782328719
 H         -1.9412295996        2.8086620361        3.7044683735
