  72
        -99.32439450
 N         -1.5119801279        2.4874980544        2.5147161795
 C         -2.2234109798        2.2822493702        1.6425167079
 C         -3.1256679837        2.0847318318        0.5252106098
 C         -3.6458166057        0.6580462654        0.4957809533
 C         -4.5395087481        0.2749134998       -0.5035955216
 C         -5.0242558518       -1.0220176044       -0.5772113746
 O         -5.8968185829       -1.4766033010       -1.4935117905
 C         -6.4515494513       -0.5827109011       -2.4303913832
 C         -4.5865121139       -1.9887554546        0.3740860988
 O         -5.0905558780       -3.2232815577        0.2133660313
 C         -4.7370612461       -4.2398275840        1.1230630562
 C         -3.7011245810       -1.5938894209        1.3673215783
 C         -3.2416099687       -0.2870712856        1.4297692021
 C         -2.3415949427        2.4026374922       -0.7770896406
 C         -1.4280882775        1.2773246976       -1.2648871544
 C         -0.2619349575        1.0004164931       -0.3121742538
 N          0.6336368007       -0.0022091813       -0.8352162686
 C          2.0075532170        0.0418390830       -0.4032673163
 C          2.9658929392       -0.3440206878       -1.5487985928
 C          4.3901257246       -0.2514963795       -1.0896979802
 C          5.0914555340        0.9448384185       -1.1898742554
 C          6.3972780019        1.0456856228       -0.7424883542
 C          7.0374930217       -0.0507092939       -0.1755048148
 O          8.2936429969       -0.0701683768        0.2921973432
 C          9.0730759758        1.1036604983        0.2436505063
 C          6.3279547694       -1.2837966150       -0.0667143842
 O          7.0206397615       -2.2922248104        0.4864678258
 C          6.4187385374       -3.5581682226        0.6257385623
 C          5.0188414950       -1.3563689820       -0.5229510178
 C          0.0545216282       -1.3150656883       -0.9708003761
 C         -4.3130272052        3.0807743934        0.7228743371
 C         -5.0851241787        2.7369411794        1.9959814456
 C         -3.8452763534        4.5331449044        0.7736460714
 H         -4.8599843627        0.9994986305       -1.2340892101
 H         -6.9836942629        0.2356132430       -1.9363195929
 H         -7.1573449395       -1.1714932843       -3.0126629447
 H         -5.6862620611       -0.1740682891       -3.0973847149
 H         -5.0495619599       -3.9916701251        2.1415016244
 H         -5.2685002079       -5.1287659543        0.7885607131
 H         -3.6601227760       -4.4335955963        1.1079346968
 H         -3.3665048606       -2.3003227514        2.1093287608
 H         -2.5696050172       -0.0098211182        2.2276355004
 H         -3.0647612658        2.6213037490       -1.5636839617
 H         -1.7441676112        3.3009434825       -0.6146160133
 H         -2.0139940733        0.3688807368       -1.4062008258
 H         -1.0160580014        1.5653940241       -2.2332797397
 H         -0.6593991645        0.6836310464        0.6649743250
 H          0.2962878197        1.9259054383       -0.1598735328
 H          2.1817546150       -0.6302856574        0.4506448640
 H          2.2451770435        1.0574577212       -0.0819927043
 H          2.7943780012        0.3360738029       -2.3833821183
 H          2.7494780076       -1.3583616161       -1.8844830843
 H          4.6168646460        1.8075478151       -1.6309526559
 H          6.9167118206        1.9847195366       -0.8419831150
 H          8.6055603480        1.9174568126        0.8058658692
 H          9.2477292372        1.4240263983       -0.7879253384
 H         10.0231627217        0.8430053542        0.7067530359
 H          7.1774496286       -4.1945019054        1.0767160506
 H          5.5451956104       -3.5151805876        1.2829455195
 H          6.1283505941       -3.9724098347       -0.3441340881
 H          4.4757321793       -2.2854533948       -0.4480820776
 H         -0.5381531396       -1.3723118681       -1.8844970948
 H         -0.6001425180       -1.5538478402       -0.1236684950
 H          0.8350212089       -2.0665504906       -1.0314205687
 H         -4.9836471831        2.9627089975       -0.1345519703
 H         -4.4493944255        2.8522377482        2.8719123697
 H         -5.4549668590        1.7140141344        1.9693480967
 H         -5.9366413098        3.4047133935        2.1033639749
 H         -3.1195297815        4.6778258676        1.5714497724
 H         -3.3996674489        4.8462138967       -0.1668356553
 H         -4.6972734574        5.1799274583        0.9710201271
 H          0.8711797393        2.3646922843        3.7376588286
