25
 energy: 40.517240371155 xtb: 6.6.1 (8d0f1dd)
C            2.94211100054405        2.48150838371049        0.51532000459461
N            2.40799077945473       -0.35801166840125       -0.33700429635032
C            2.55412048750062       -1.58826255464004        0.05198815251515
N            1.35595744567773       -2.26995420294776        0.15760416938657
C            0.38866292113924       -1.37162915936253       -0.16298144280761
C            1.04971812409750       -0.18851886775763       -0.47753592941072
C            0.26263047612503        0.99013561782350       -0.78906881752295
O            0.61124573553706        1.96813635732288       -1.38784759205018
N           -1.03145732157068        0.87698794525880       -0.23093155494089
C           -1.74229591954265        2.08967046497033        0.13121781617937
C           -1.69979570666660       -0.29383227522836       -0.01699097087775
O           -2.88155250583564       -0.30684411918294        0.25095260857716
N           -0.97498625954510       -1.49558009604812       -0.13107964171287
C           -1.81750014800412       -2.70073017294643       -0.17695470878656
H            3.90073186047595        2.46169671875132        0.95922685553678
H            2.85740412825711        2.60289453318550       -0.52500151066318
H            2.05708664217633        2.28500557756212        1.09379994462886
H            3.48264767481556       -2.06052377557834        0.29842575646312
H           -1.07277443860902        2.90924216504071       -0.05636630149516
H           -2.64409247916818        2.24669549706682       -0.42237415694848
H           -1.98287433607696        2.07103796333675        1.19793534926869
H           -1.82477667865208       -3.28515384358818        0.75945998381497
H           -1.58598201319808       -3.37311814810055       -1.00611479031776
H           -2.80824651302176       -2.28319291706496       -0.36355548830626
H            1.23956891626931       -3.24274146100255        0.37304190235092
