25
 energy: 29.924059809393 xtb: 6.6.1 (8d0f1dd)
C            3.62821586852368        3.72570618792693        0.21798081432250
N            2.30609704987295       -0.89637179902437       -0.02025684456743
C            2.31517659610696       -2.18613108621005       -0.07688005951537
N            1.04738326625283       -2.72323293083341       -0.11821136801319
C            0.19946500059165       -1.66300250528589       -0.08356174605473
C            0.99201698811176       -0.52523008396556       -0.02273695537256
C            0.40421332365623        0.79067478803905        0.02906136548608
O            0.97884651507212        1.85160581014020        0.08149774985008
N           -1.00136417662483        0.72472344978715        0.01406613135653
C           -1.73516143873194        1.98221058029754        0.06908676477906
C           -1.79495153980563       -0.39990212510747       -0.04359417644689
O           -3.00292746458842       -0.33125782104400       -0.04787067220932
N           -1.15510788934042       -1.63910554001502       -0.09935484386051
C           -1.94672456037191       -2.84841000759755       -0.16682813160260
H            3.96096792506392        4.11040824706849        1.15929584809252
H            4.19045427198031        3.94061744621587       -0.66663156305571
H            2.74386993402413        3.12687306334450        0.16258984317793
H            3.19995093647606       -2.78953988637512       -0.09061489502825
H           -1.01356649906057        2.79613330306307        0.06730892792332
H           -2.39849505987430        2.05952007510165       -0.79173483053309
H           -2.34193559582080        2.01784796081197        0.97371365174861
H           -1.77203717222384       -3.47169250335606        0.71227032675013
H           -1.70927544675306       -3.41070991746984       -1.07158963277508
H           -2.99463599667199       -2.55187264556925       -0.19266828663357
H            0.81173946917823       -3.70083327106138       -0.16730350562056
