25
 energy: 30.084419486170 xtb: 6.6.1 (8d0f1dd)
C            2.99352322393595        1.54425589297080        0.14727921683314
N            2.43156964726765        0.06181164379302        0.00850294650436
C            2.72399806376675       -1.34201705928337        0.14417310909390
N            1.52701294039892       -2.07921334011161        0.08136237546957
C            0.47347689412797       -1.23214755428470       -0.01500608564082
C            1.03960657441893        0.03453688953077       -0.07877283728464
C            0.22842743414455        1.15450922815555       -0.27150622804722
O            0.58291308476194        2.28178824193844       -0.64756996706905
N           -1.15099181216736        0.92900192367055       -0.06091300345402
C           -1.98843100242446        2.11601948238656       -0.01449285398338
C           -1.74512024981076       -0.28360235372812       -0.05581661076455
O           -2.94997655485850       -0.40264582064280       -0.02587128976254
N           -0.89859658383612       -1.42066273904371       -0.06249539638304
C           -1.62437814663446       -2.67963512216066       -0.08321471379383
H            3.56370116571740        1.86028126716170        1.01361209404030
H            3.61361122783858        1.81113233779647       -0.72707973239392
H            2.09895408374287        2.17197238840464        0.14838441221785
H            3.61379320079389       -1.94457010767912        0.14115775416964
H           -1.37718116735637        2.99646703252446       -0.03258013491052
H           -2.59454184709671        2.19660498369219       -0.88857155764408
H           -2.52401523573199        2.16689655346168        0.91916441705125
H           -1.43969135208695       -3.26484100028690        0.82054550526684
H           -1.40198277553307       -3.28018464101897       -0.96697205903946
H           -2.68685847280042       -2.39479660306263       -0.12537987215453
H            1.46870606210437       -3.09361445502426        0.11208308110325
