25
 energy: 31.279689978738 xtb: 6.6.1 (8d0f1dd)
C            3.53906998764392        3.54518090525668        0.26397358614903
N            2.32840574877110       -0.83244361353665       -0.05960197712670
C            2.35452297342858       -2.11729995325449       -0.04905969321135
N            1.09116724642006       -2.67000000236433       -0.06317220096284
C            0.22793968610407       -1.62194081271289       -0.08967774996996
C            1.00928311888562       -0.47839509668419       -0.08170347885177
C            0.40871899844361        0.82741133911942       -0.06425907696536
O            0.97658248677194        1.89311552022352       -0.00138342421086
N           -0.99573741834381        0.75086439065078       -0.00511181319001
C           -1.70526598615945        2.02165741971447        0.09957778736968
C           -1.78452059226583       -0.37901216099194       -0.03349361238829
O           -2.99231089751501       -0.32341981636127        0.01161678257590
N           -1.12780035725053       -1.60596829771997       -0.10271244136388
C           -1.91015312388373       -2.81780280232678       -0.17154127500905
H            4.00256045701325        3.85152311947828        1.17504435429650
H            3.94271433739141        3.84439129643123       -0.67943075565326
H            2.61484720835369        3.01656612414970        0.27639213878255
H            3.25235248250627       -2.69731815363275       -0.01187046702500
H           -0.97024750145344        2.82821223025769        0.02398106846213
H           -2.43247682937670        2.10325004619832       -0.70962870109499
H           -2.23331893268751        2.05258906411334        1.05175332304133
H           -1.76817881442311       -3.40382834628734        0.73433617517339
H           -1.62269130112017       -3.39411886376378       -1.05323285644516
H           -2.95624609153759       -2.52280341919883       -0.24258785753734
H            0.86709820637488       -3.64814438917642       -0.05604517240641
