72
 energy: -99.253105154814 gnorm: 0.003026875332 xtb: 6.6.1 (8d0f1dd)
N           -1.96809322136757        2.90544343591041        2.23534677651436
C           -1.90281483574808        2.17938971222724        1.22131051726940
C           -3.03500896343402        1.94865603116003        0.25913691792932
C           -3.49005416681388        0.49953741529538        0.34551314539354
C           -4.39846557713265        0.00307227064762       -0.59171669192419
C           -4.85621775150426       -1.30247486500116       -0.53570485764134
O           -5.74018437156881       -1.85548172929431       -1.39232290713409
C           -6.35283242875358       -1.04568218446785       -2.36786573172097
C           -4.38360018902529       -2.16627580472210        0.48869967897958
O           -4.87385821961116       -3.42217807641326        0.46074953046131
C           -4.51943218628927       -4.31812930526623        1.48797608695647
C           -3.48419808262119       -1.66696278022001        1.41681926057573
C           -3.04671630340216       -0.34992950237107        1.34687088265994
C           -2.45997045215553        2.23793780920575       -1.15253950632453
C           -1.51283582129705        1.15034238629998       -1.69088381015015
C           -0.18763252718636        1.13938129186674       -1.03234982922528
N            0.46910135759617        0.05636427822244       -0.63781619820635
C            1.84575204547470        0.15062590689929       -0.21182437488422
C            2.81950001228090       -0.29072945297989       -1.31984924845107
C            4.23547616402752       -0.09394805095114       -0.85207832442623
C            4.93768077390411        1.06994295918424       -1.17094978087632
C            6.23413126235140        1.27258184695217       -0.72819927312590
C            6.87929375389150        0.31681842122372        0.04782163018810
O            8.13172140284646        0.39236110095738        0.52840861378319
C            8.92406149035491        1.51671481730845        0.21338218745301
C            6.15765644395570       -0.87032096102987        0.36874604334724
O            6.83088911263640       -1.80397403556867        1.09370653804409
C            6.27244539430114       -2.94358760175314        1.39560977572014
C            4.86043642195182       -1.03856294554875       -0.06976966419674
C           -0.12017754709970       -1.26000849512065       -0.68926382340896
C           -4.26655035772758        2.86366402055347        0.52752505045429
C           -4.91583703346040        2.54572648054778        1.87238457493554
C           -3.93793932970996        4.35213456472613        0.45287656372157
H           -4.76416201975241        0.65345494853899       -1.36876605136198
H           -6.88685275016162       -0.20561032406179       -1.91365463291823
H           -7.06516525431321       -1.69152263576750       -2.87739743988272
H           -5.62549060229353       -0.66876076603856       -3.09439572712018
H           -4.81606401805188       -3.93908428281056        2.47039138812327
H           -5.06442776075084       -5.23577321167710        1.27576069017965
H           -3.44475736181102       -4.52698781892397        1.48576536521318
H           -3.12353459075936       -2.29318781038498        2.21656363415748
H           -2.37141144701347        0.01085144587583        2.10724605592453
H           -3.28851592804901        2.34003553911502       -1.85259043353570
H           -1.93053381031223        3.19125232221707       -1.12817541341061
H           -1.99975964112126        0.17840487801234       -1.63233132043924
H           -1.34630478760577        1.37639777811536       -2.75234656129724
H           -0.98139306323121        1.65848128374219        0.89661649149158
H            0.35596580523619        2.07223496705264       -0.99499639543656
H            1.99627215343483       -0.47851046998905        0.66898259473725
H            2.06838336811025        1.18388581410429        0.06214444754098
H            2.63337202961699        0.30509428617837       -2.21527047330496
H            2.65297559351306       -1.34220856085879       -1.55813856918989
H            4.46642696520188        1.82480061582146       -1.78501340886425
H            6.74238945989823        2.18375563514348       -1.00058479368240
H            8.48992008717981        2.43627159133752        0.61624512356941
H            9.06057035451196        1.61724393096835       -0.86669351445283
H            9.88795635889994        1.33517975607709        0.68483537880292
H            6.87574874577759       -3.61815926546429        1.97508916713963
H            5.21108568797343       -3.08706387156161        1.25419766776148
H            6.40578113211925       -3.84461970191797       -0.45642795273958
H            6.40851056062334       -3.97362903145992       -1.25159993953899
H           -0.25771286258297       -1.59165929142078       -1.72071427041882
H           -1.09056690424200       -1.26293561968477       -0.18663733785395
H            0.53523503052707       -1.96463146618547       -0.18370150018405
H           -4.99621008242107        2.63936958816206       -0.25889556035801
H           -4.23012447807358        2.77792555245502        2.68069395646731
H           -5.19516339451236        1.49683082978045        1.93607745207699
H           -5.81284483420937        3.14696814558638        1.99484614762284
H           -3.19545171975628        4.61268548452656        1.20069681112660
H           -3.57447859514312        4.63961779068049       -0.53018217257359
H           -4.83873462789558        4.92573289883554        0.65486096926258
H           -1.13014347122397        3.00955960989793        2.79901521727971
