25
 energy: 46.833537790738 xtb: 6.6.1 (8d0f1dd)
C            3.31134260923012        1.66600494104498        0.14589392337961
N            2.69063796766722        0.36447066288153        0.02330508582488
C            3.16615995363163       -0.86743208902154        0.15385406769079
N            2.15346515513566       -1.77609140455275        0.11684508772571
C            0.95080172954418       -1.09642836368332       -0.02571497688021
C            1.34133601468770        0.24634738556751       -0.10956525671214
C            0.39409968296004        1.30436242796633       -0.20925292976483
O            0.68299391288033        2.49246105448371       -0.29927621941254
N           -0.87800871225687        0.82841049919905       -0.13528675606201
C           -1.92458040075764        1.82872005966887       -0.04988698815509
C           -1.25431368872831       -0.54315782504250       -0.05334671674460
O           -2.44680387712447       -0.71719620234361        0.01878982880441
N           -0.29586640217994       -1.52035051445372       -0.03359651183868
C           -3.76015165752069       -3.14838353808625       -0.15311122251013
H            4.24817910980438        1.60085803900103        0.68612762500864
H            3.45730796057631        2.14600539125189       -0.82262025056599
H            2.62166351111610        2.33173074001805        0.66981117252708
H            4.19724616130167       -1.12994409981684        0.23689537468469
H           -1.41029160779805        2.78949111439088       -0.09127784943148
H           -2.62034913203961        1.70653652048222       -0.87621596757309
H           -2.46205884190774        1.71623652860734        0.89136675971803
H           -3.73194753319658       -3.80331838968033        0.67754104110792
H           -3.82638101801660       -3.51414334672952       -1.14394800135578
H           -3.77042158453121       -2.09882566361441        0.01239623724990
H            2.28180801457945       -2.77497692157087        0.22188489633303
