25
 energy: 38.198694066300 xtb: 6.6.1 (8d0f1dd)
C            3.56176059289612        1.81308447095776        0.11385707825003
N            2.87888948574144        0.54709629012612        0.06902197086547
C            3.39945666130576       -0.66883642928561        0.11345469472405
N            2.41407797988116       -1.59301932311796        0.07676325186284
C            1.19824172195030       -0.93567494870391        0.00741842211148
C            1.52125827850335        0.42523427478520       -0.01026971483111
C            0.47778949691454        1.41186105458097       -0.06498594069090
O            0.66522543893611        2.62270964182115       -0.09200476896377
N           -0.76062571901066        0.82286265904442       -0.06691327434619
C           -1.91180302671318        1.70197325407718       -0.06496340772069
C           -1.04324687676782       -0.58336335832521       -0.04032152517774
O           -2.20236762476481       -0.92588049916165       -0.03519167490618
N            0.00091411000300       -1.44884163687485       -0.01437514342504
C           -4.51142902581202       -3.53193011140871       -0.18439186059103
H            4.29130980730489        1.82848344252625        0.92229155475298
H            4.05429209756806        2.01679862733436       -0.83592170532906
H            2.81047777778558        2.58864886165793        0.27268099354225
H            4.44501871104812       -0.88932634772329        0.17452333913560
H           -1.53770246123443        2.72416467955510       -0.06552550593818
H           -2.51951246165667        1.51160696464482       -0.94847921322519
H           -2.51425846087970        1.51153744718720        0.82309326528682
H           -4.74041129476681       -4.08907823673626        0.69949855293751
H           -4.84455445243073       -3.85376608738546       -1.14862197281975
H           -4.06067631340230       -2.57046458891295       -0.08764130214805
H            2.53422910352839       -2.59337534089608        0.11577868809285
