  25
        -42.02563365
 C          3.1440587552        0.5231730957       -1.2096686514
 N          2.3928674815       -0.1453833000       -0.2082678902
 C          2.7379016777       -1.1769354825        0.7316870957
 N          1.7343360940       -2.2265753336        0.6795032570
 C          1.3269824189       -1.0400391302        1.3200547518
 C          1.1221163329       -0.0137908077        0.2538953489
 C          0.1460342044        0.9377110345       -0.1471281386
 O          0.3399585005        1.7799466558       -1.0068479919
 N         -1.1044015229        0.8873388271        0.5670589634
 C         -1.3710275321        1.9274223225        1.5188256597
 C         -2.1579353232        0.1430884075        0.0434970185
 O         -3.2794141747        0.2025705142        0.5256996271
 N         -1.8027400824       -0.6130985881       -0.9992033864
 C         -2.6730329176       -1.4369601851       -1.7081693115
 H          4.0702613407        0.9253563358       -0.7899191951
 H          3.4110429965       -0.1730826205       -2.0116811993
 H          2.5407110399        1.3349599500       -1.6184514883
 H          3.7267164680       -1.3052995392        1.1348025736
 H         -1.2183480766        2.9138746209        1.0663949710
 H         -2.4076402476        1.8357727180        1.8486399842
 H         -0.6993121216        1.8317241987        2.3758699832
 H         -3.0727445921       -2.2432753570       -1.0744440887
 H         -2.1220214747       -1.8800091758       -2.5415669096
 H         -3.5352258033       -0.8789542512       -2.1037623715
 H          1.9008588455       -3.0550991558        1.2397720301
