25
 energy: -42.098087258427 gnorm: 0.006099318048 xtb: 6.6.1 (8d0f1dd)
C            3.11366137337557        1.14258336678860        0.02759338375913
N            2.27483559781059       -0.05045452173394       -0.00963816771220
C            2.86349892365136       -1.19731557394931       -0.03236767135695
N            0.93802409170593       -2.36778900420032       -0.01495844834696
C            0.26356232343027       -1.27419288745371       -0.00388424911850
C            0.90837224137589        0.01562571272999       -0.00145549251698
C            0.12037399628179        1.23192719899640       -0.01469208964567
O            0.57828362013929        2.35855827226987       -0.04060326081769
N           -1.25110287874465        1.02232079115725        0.00026674714272
C           -2.12480095637708        2.18273180709461       -0.00321702505458
C           -1.89976943530923       -0.20038585899775        0.01178499888657
O           -3.09858313342514       -0.28189448261955        0.02357240657290
N           -1.09356005165645       -1.33269720038293        0.00620137160176
C           -1.71958868342513       -2.64037150168869        0.00548629533931
H            3.56895938878464        1.23739200991173        1.01430867216439
H            3.90364850513753        1.06694357304947       -0.71793770768792
H            2.50535730178541        2.02849375775899       -0.16383484888486
H            3.91452892511372       -1.40762615911563       -0.02431316615235
H           -1.51041403592701        3.08035437082524        0.00464307802086
H           -2.75925223758660        2.16495895240617       -0.89083108879690
H           -2.77374945150457        2.15659261478773        0.87341769795875
H           -1.39930699453344       -3.20084941706985        0.88472842100690
H           -1.41409961951743       -3.19263545228330       -0.88420443210038
H           -2.79938759315683       -2.50630839369452        0.01502420924032
H            2.05094029667166       -2.21772343298670       -0.03391801560168
