  25
        -42.18643038
 C          3.4156632627        0.5055792078       -0.0975148647
 N          2.1977791504       -0.1701630830        0.1134237156
 C          3.3267972219       -0.9861574959       -0.0854153907
 N          0.6911442734       -2.4084520609        0.0377385927
 C          0.0852498628       -1.2842775978        0.0276658159
 C          0.8894923639       -0.0832554860        0.0388344062
 C          0.2846159084        1.2435807521        0.0189770967
 O          0.9473745269        2.2641909079        0.0091727602
 N         -1.0987930429        1.2553337599        0.0091207806
 C         -1.7804693208        2.5349925167       -0.0027310428
 C         -1.9110700605        0.1334280310       -0.0025843403
 O         -3.1133614064        0.2389734264       -0.0173896469
 N         -1.2881914434       -1.1068561727       -0.0001912324
 C         -2.1463629184       -2.2765733209       -0.0260753654
 H          3.8481068628        1.0123478862        0.7599227942
 H          3.3696427558       -1.5665567830       -0.9970169956
 H          3.5266958039        1.0579381184       -1.0253819602
 H          3.6866856653       -1.5222334473        0.7865311164
 H         -1.0329038083        3.3227734050        0.0797372641
 H         -2.3462909112        2.6502559542       -0.9299039683
 H         -2.4849390247        2.5871082620        0.8295226382
 H         -2.0042451895       -2.8749950450        0.8764869737
 H         -1.9348368151       -2.8840464225       -0.9085514316
 H         -3.1812916540       -1.9370428173       -0.0669113032
 H          0.1742691889       -3.2747588013        0.0366169912
