  25
        -42.03139200
 C          3.4667200705        1.0394159284        0.0572895529
 N          2.4178228469        0.0547115807        0.0165421171
 C          2.5677018965       -1.2665459632        0.0057274494
 N          1.3638691490       -1.8684804565       -0.0217186813
 C          0.4033492731       -0.8903293828       -0.0301520038
 C          1.0699676712        0.3268353423       -0.0067704154
 C          0.3674149066        1.5891715290       -0.0164250109
 O          0.8606692801        2.6942878749        0.0044915513
 N         -1.0363253315        1.3664621969       -0.0606779950
 C         -1.8661800250        2.5636387409       -0.0866660514
 C         -1.6654879076        0.2119334395       -0.0739579322
 O         -4.4790400107       -2.5377836944        0.2419060867
 N         -0.9667620391       -0.9780229246       -0.0494980165
 C         -1.6354128212       -2.1326948958       -0.0463399733
 H          4.0453918635        0.9367138771        0.9758044876
 H          4.1356566363        0.9161446387       -0.7944198912
 H          3.0182619274        2.0318384818        0.0252841316
 H          3.5082966492       -1.7820008213        0.0177283527
 H         -1.2187946367        3.4338777569       -0.1761926582
 H         -2.5519782460        2.5168710826       -0.9292896458
 H         -2.4463103102        2.6318866109        0.8319930351
 H         -1.0987099440       -3.0630288233       -0.0283673820
 H         -2.7213529157       -2.1199374855       -0.0275220660
 H         -5.4338693657       -2.4880951514        0.1860777899
 H          1.2132770335       -2.8678100472       -0.0382915922
