25
 energy: 44.307821493631 xtb: 6.6.1 (8d0f1dd)
C            3.43193455911669        1.71165512542981        0.12651359601817
N            2.75120143509487        0.41981858940949        0.03165690198555
C            3.19926153164529       -0.83773775169766        0.10107291680876
N            2.16795008154383       -1.72414918665158        0.07057855121218
C            0.98238868582774       -1.01777227096615       -0.01105611709817
C            1.38459851735434        0.32847903080659       -0.04072651493264
C            0.40864256452524        1.36634102712699       -0.12515978624813
O            0.66310364501085        2.56322294152616       -0.18985020456319
N           -0.86148996057718        0.84033021409376       -0.10842891395191
C           -1.94638511279391        1.79927521799592       -0.04550247436935
C           -1.23683688531984       -0.53169090957283       -0.06367443374867
O           -2.42611407253664       -0.73605761079831       -0.04223456838205
N           -0.24501681480402       -1.47845419729686       -0.03781068427136
C           -3.78036073868614       -3.38998613824033       -0.12246522217944
H            4.34667393120972        1.66561630778294        0.70922652261628
H            3.70502976732053        2.15601422268316       -0.83251507799421
H            2.75245200438090        2.43942100343109        0.56518539427020
H            4.22058177886705       -1.15660203569377        0.14704590437733
H           -1.45796005079333        2.76359538806529       -0.08882720126416
H           -2.62965649735998        1.65115886475497       -0.88424483649179
H           -2.48332132814407        1.67116370980829        0.89523559708466
H           -3.97096228994847       -3.86403293024537        0.80372657642014
H           -3.89472158185187       -3.91469430864653       -1.03340998578235
H           -3.80365979220584       -2.33127289067956       -0.14999763730131
H            2.22553780767152       -2.73611179410340        0.13871061722398
