25
 energy: 60.310166000592 xtb: 6.6.1 (8d0f1dd)
C            3.20811711810341        1.57214799844714        0.21146918034563
N            2.58307526451987        0.25309665216450       -0.00702172732719
C            2.98563580461045       -1.02880896271562        0.09095815229124
N            1.91270866017305       -1.87919573175104        0.06857616997068
C            0.74544773873069       -1.14899656345874       -0.04965100657821
C            1.21673792955693        0.17441448320650       -0.11772186885162
C            0.31815042823702        1.26185373561207       -0.26275518703926
O            0.63674336813084        2.43143076585493       -0.43159962694442
N           -0.98290810548615        0.85182896025572       -0.14631267071124
C           -1.98238014849837        1.90300293760699       -0.04715996533774
C           -1.43487289810983       -0.47353145489200       -0.07398068338561
O           -2.64383437828445       -0.49604181392458        0.00690424972431
N           -0.53083825003991       -1.53388143424044       -0.06511394009017
C           -3.10878938442625       -3.02385046838986       -0.10162660727579
H            4.17363231867629        1.47264543984011        0.69987636454822
H            3.38612906711863        2.14013888029392       -0.71283381607326
H            2.55383448197503        2.18638035319484        0.85892310230395
H            3.98735154109645       -1.40964669189748        0.16005850190098
H           -1.37777835202784        2.80354326082603       -0.07843345680958
H           -2.67328142191611        1.83329753603632       -0.87543639823123
H           -2.53527606915348        1.81392010636279        0.88817907468773
H           -3.06286260981874       -3.48710856382468        0.84079157029459
H           -2.98661493087894       -3.58377839474214       -0.98153975198882
H           -3.42456924556238       -2.01494477030851       -0.15910539328076
H            1.92233608934407       -2.88831422400972        0.16578156790784
