25
 energy: 38.086006891685 xtb: 6.6.1 (8d0f1dd)
C            3.58149361458477        1.76975250654071        0.09738589787724
N            2.84122473236778        0.53251286525302        0.06682199089342
C            3.31822868079618       -0.70516200511263        0.08087633511905
N            2.30699357220619       -1.60053566301763        0.05045271537702
C            1.12258296076936       -0.89599006773765        0.01202687537149
C            1.47598280753883        0.45482499090555        0.01904074553692
C            0.44310401966896        1.45792801342862       -0.01496747109812
O            0.64518183431338        2.66508089042655       -0.01866393972678
N           -0.80546805226492        0.88478306784943       -0.04443586697941
C           -1.95601661553841        1.76520058815064       -0.05530620308024
C           -1.11001806639830       -0.51401524784406       -0.04549247964615
O           -2.27159119118284       -0.83922809175171       -0.06726210068263
N           -0.07693122901632       -1.38830113405614       -0.01867973169799
C           -4.24286693196265       -3.68208495596642       -0.14353479227262
H            4.29032457583623        1.78176291108015        0.92008516575227
H            4.11953390498144        1.92313333699730       -0.83313101418545
H            2.87364300728634        2.58879003849367        0.21290723365114
H            4.35180471855328       -0.97547155156899        0.11774785529473
H           -1.58208272127646        2.78383493755944       -0.05595109349747
H           -2.56173430477098        1.58109814550171       -0.94281735346167
H           -2.56564463193149        1.57900867019989        0.82889396590914
H           -4.57631401682079       -4.10981944270219        0.76801351211254
H           -4.50224543163532       -4.13423037493598       -1.06723880728348
H           -3.80847768902592       -2.72225189526398       -0.13894087567509
H            2.38466993877640       -2.60891872040714        0.07227547175802
