25
 energy: 62.286645899233 xtb: 6.6.1 (8d0f1dd)
C            3.20738037184563        1.54169984671230        0.18280146544880
N            2.55608196845875        0.23135531364523       -0.01810807694104
C            2.94794235073660       -1.05599028669830        0.07467634525448
N            1.86480880771424       -1.89509536942334        0.06241302583581
C            0.70277188590514       -1.15836491755067       -0.05690178953185
C            1.18636102676765        0.16151917439054       -0.12805732021643
C            0.29406887094539        1.26015741363072       -0.24936373972622
O            0.61575039665717        2.43178547822780       -0.39444601294376
N           -1.00924615238163        0.86448377494309       -0.14148621724089
C           -2.00516924731819        1.91899522987689       -0.04533474464055
C           -1.47338749552308       -0.45531939947793       -0.07671551144293
O           -2.68485393068121       -0.45403173626121        0.00574111007305
N           -0.58289142591233       -1.52866622108761       -0.07189792427675
C           -2.98028022347614       -2.98337450515834       -0.09746542476488
H            4.14009857745106        1.43897818169547        0.73605922017093
H            3.46682007785793        2.07296612949179       -0.75470930886474
H            2.53297768344538        2.19426520903735        0.76730712260860
H            3.94441369679548       -1.44877473335055        0.16134246363453
H           -1.40573051299615        2.82202504730976       -0.06857708347466
H           -2.68433346049561        1.86145515105108       -0.88241362164261
H           -2.56977784758421        1.82191905299157        0.88217675923875
H           -2.90635561334477       -3.43716187500549        0.84804569555012
H           -2.83148316007864       -3.53682757281835       -0.97711840367480
H           -3.33492503480285       -1.98758183816022       -0.15623773051307
H            1.86585753344183       -2.90287607153080        0.15845563578733
