25
 energy: 63.959015477682 xtb: 6.6.1 (8d0f1dd)
C            3.21442362003112        1.50848083661073        0.17091706240827
N            2.52941702517485        0.21303995113045       -0.02169438516945
C            2.90949852767280       -1.07997539860986        0.05744781554266
N            1.81661572601048       -1.90869116953702        0.05125538769473
C            0.65977638481293       -1.16492307127628       -0.06310790550041
C            1.15493670879460        0.15313193884522       -0.13225366477580
C            0.26728393647239        1.26133434403458       -0.23053709305813
O            0.58632022367369        2.43559611567843       -0.35862941931022
N           -1.03783390395935        0.87450595276829       -0.12846382276863
C           -2.02982476144243        1.93235312245979       -0.04350712055588
C           -1.51455324397235       -0.43776719473843       -0.07861877492066
O           -2.72910593477260       -0.41788558758792       -0.00115574400500
N           -0.63528304911750       -1.52282081067761       -0.07962443094512
C           -2.84009902688073       -2.94877811622113       -0.09263509984224
H            4.11457870505321        1.41729517491928        0.78598996462448
H            3.54453309392796        2.00074086855224       -0.77061592290415
H            2.53070168787423        2.20056299642305        0.69050480038458
H            3.90040039822387       -1.48709810035506        0.15700791404155
H           -1.43092186399772        2.83444776648227       -0.05336393513084
H           -2.69406120049638        1.88312436790265       -0.89238314611706
H           -2.60659314155272        1.83609859043391        0.87515126373047
H           -2.74747067675116       -3.39849844721576        0.85417817327838
H           -2.67559299218216       -3.49488959270809       -0.97481036277232
H           -3.24012924970483       -1.97004322794881       -0.14968808166238
H            1.80930049461634       -2.91440772998731        0.14944160184454
