25
 energy: 40.227140554944 xtb: 6.6.1 (8d0f1dd)
C            3.50486296917013        1.73627117169560        0.11221355616925
N            2.79676802645458        0.47138808660161        0.05304725988361
C            3.26016779749727       -0.77537234118757        0.09625044616246
N            2.23846826071062       -1.66576457702797        0.06327559082567
C            1.05105070903205       -0.96144560118132        0.00021582210437
C            1.43043890606223        0.38737098223853       -0.01044506929016
C            0.42285794021274        1.40665428042450       -0.06779602969160
O            0.64768373856177        2.61011194629551       -0.10214776359776
N           -0.83531663707465        0.85476756823813       -0.07740940462682
C           -1.95775412874704        1.77064186633053       -0.05839281367594
C           -1.17742417584961       -0.53019961171942       -0.05517866663883
O           -2.35579921129834       -0.79441542495359       -0.05396187383574
N           -0.16212559440872       -1.43908347205977       -0.02965789970968
C           -4.00616519959197       -3.53667373943214       -0.13238545910601
H            4.32769902764828        1.71498806241330        0.82021701301331
H            3.91111083359507        2.04194389463457       -0.85130669318813
H            2.79740004397033        2.51856109520056        0.38872434808584
H            4.28882241199625       -1.06989133322126        0.13891818669454
H           -1.52825633582470        2.76544560917597       -0.08473272930425
H           -2.60552942488008        1.59843409657837       -0.92007576916895
H           -2.52379404273281        1.61863428762646        0.86129135605977
H           -4.28544702544806       -3.97562228723545        0.78875460279595
H           -4.20911301734137       -4.01329619081719       -1.05438412612903
H           -3.80220524353566       -2.50445181812449       -0.14530062820433
H            2.30944126252313       -2.67556257640135        0.11419721930657
