25
 energy: -2.369595288277 xtb: 6.6.1 (8d0f1dd)
C            3.25966331448238        1.23954171218234        0.10698732672470
N            2.35540553887895        0.11568105920583        0.02400032773209
C            2.65357929808348       -1.24851079307040        0.03462961182077
N            1.46428617438143       -1.94098519605139        0.01314880409817
C            0.43060616157466       -1.08312210807235       -0.01719991543761
C            0.95537625137050        0.21653642284127       -0.00906253363662
C            0.12671857232847        1.35526426575418       -0.03061879842475
O            0.44746821576724        2.54895704821588       -0.04161361178158
N           -1.26262349858614        0.99487678413317       -0.03921098959846
C           -2.20670304458112        2.09794758445040       -0.04896361092634
C           -1.80393561616954       -0.24819897147514       -0.05478409353596
O           -3.00804498926222       -0.43499456024501       -0.07091555226108
N           -0.92178115057422       -1.35757568607423       -0.04774966916270
C           -1.63797760025014       -2.62889001014493       -0.05948564854612
H            3.79828125843530        1.27021992357492        1.06140254630609
H            4.00531703312535        1.24490831169051       -0.70023088215211
H            2.66473797428190        2.15973920673843        0.05362633489832
H            3.61243890382520       -1.71644802986646        0.05051874791494
H           -1.62501869591525        3.02081257007013       -0.02822547606533
H           -2.81530250182881        2.04288799995547       -0.95003815748287
H           -2.84690773455049        2.02663661050516        0.82810408602496
H           -1.46207165881061       -3.22243051192507        0.83908046054435
H           -1.43123416542780       -3.21831247815498       -0.95435293532157
H           -2.68532441650330       -2.36456212918898       -0.07715977602892
H            1.35885542760212       -2.94053211134819        0.02681083937877
