25
 energy: 46.155812698322 xtb: 6.6.1 (8d0f1dd)
C            3.22618285475124        1.40914553976834        0.15374149805065
N            2.45461505481525        0.15741867577462        0.00051201803193
C            2.81518397667915       -1.19184438140178        0.02430710905914
N            1.66593890887361       -1.96789215183239        0.03492171454524
C            0.52525659827096       -1.23240207912623       -0.04610040228552
C            1.03265725053128        0.11110831238901       -0.08397040663204
C            0.22036765767958        1.25380963141348       -0.15245888064064
O            0.54535925363380        2.44402944495363       -0.22326779377740
N           -1.14451142175322        0.88871429052809       -0.09439053218892
C           -2.10543214491480        1.98034043354958       -0.04810486026657
C           -1.67729466487679       -0.35228317896564       -0.08502801934616
O           -2.90267886468097       -0.35911379598615       -0.06089628559542
N           -0.91198175561705       -1.56739166180008       -0.08451323996298
C           -2.10030933782786       -2.69678309369654       -0.07095410794099
H            4.00450689025114        1.36819048565550        0.93455464505451
H            3.75957374481221        1.73617916898301       -0.77048367365794
H            2.52050152220872        2.21567251258741        0.44597525584402
H            3.79894890986386       -1.61302854406845        0.12930960518809
H           -1.50319967259604        2.88804503914776       -0.04229304963539
H           -2.75254921149605        1.91847953396072       -0.91695029851063
H           -2.70526805249405        1.90116326495802        0.85711445935646
H           -2.20259558554963       -3.28194856087444        0.83996395604445
H           -2.15157495719717       -3.33978941380009       -0.94107572931830
H           -2.94590289907989       -2.02458106213345       -0.10834479334066
H            1.65234511491866       -2.97313412774189        0.10391131191597
