25
 energy: 63.629199070735 xtb: 6.6.1 (8d0f1dd)
C            3.21876069115622        1.44860629395464        0.16100891651134
N            2.48276354787886        0.17578734770255       -0.01171768944221
C            2.84415690229489       -1.13362689200374        0.03647558594073
N            1.72258934623865       -1.93769401541112        0.03235151651726
C            0.58113326683794       -1.17721295607296       -0.06101586186141
C            1.09427723015332        0.13809219582314       -0.11219072307478
C            0.23363573639153        1.27170678752665       -0.18018299005755
O            0.57285251094091        2.44628545885791       -0.26885950666920
N           -1.09004425075312        0.89786872793004       -0.10379622059905
C           -2.07731547252458        1.96425879493252       -0.04743074324774
C           -1.59300830504211       -0.39611939881144       -0.08395593781633
O           -2.81400705591313       -0.37286876896496       -0.04004325399244
N           -0.74143225072392       -1.50642811086308       -0.09235585030587
C           -2.50819946749462       -2.87757928899008       -0.07574526215012
H            4.04122185929238        1.38036136341458        0.88590918825958
H            3.68769227994385        1.82849931299177       -0.77281450591750
H            2.50439394349544        2.22044402979370        0.53212946702447
H            3.81966256619312       -1.56356657891713        0.14449829043722
H           -1.48444977475903        2.87474702572808       -0.04617522027868
H           -2.73153889892968        1.89349675618144       -0.90860403053468
H           -2.67071219488286        1.87508818981673        0.86185939867885
H           -2.42114371372967       -3.34637255909893        0.86420465654841
H           -2.36114084633210       -3.42083689446636       -0.96395308895662
H           -3.05894909469984       -1.97900553292123       -0.12122196711072
H            1.70277918470179       -2.94559633418576        0.11857804036591
