25
 energy: 57.660869454298 xtb: 6.6.1 (8d0f1dd)
C            3.23897728122833        1.59904477820457        0.20072605984834
N            2.61291521552535        0.27855705743320       -0.00148248166983
C            3.02374131857145       -0.99845464938627        0.09829115891980
N            1.95969192041344       -1.85795383075220        0.07217060892301
C            0.78798847665928       -1.13391203992558       -0.04186069500316
C            1.24756150423324        0.19379390814098       -0.10600968378122
C            0.34086649068729        1.27315780585220       -0.25131364214368
O            0.65984914587305        2.44420033917077       -0.40977170618974
N           -0.95743628564245        0.84262399057962       -0.14571047382735
C           -1.95935058190556        1.89141843294430       -0.04920705948359
C           -1.39813418310136       -0.48908861436611       -0.07136056842188
O           -2.60476509300582       -0.53943015469156        0.00266668137071
N           -0.47915206989791       -1.53423683311411       -0.05752514288562
C           -3.22990297456467       -3.06961099482175       -0.10539447903789
H            4.22571442527618        1.49822316400927        0.64574737886178
H            3.32987330148506        2.20579175052271       -0.71474464208560
H            2.61943754217506        2.19079876514833        0.88984634477391
H            4.02915412614755       -1.36898182458237        0.15797489553494
H           -1.34622345297496        2.78946817692602       -0.08841115135905
H           -2.66104167803992        1.80609017136041       -0.86945910821272
H           -2.50050789153739        1.81530322137565        0.89307395358668
H           -3.21767256790031       -3.54274054838567        0.83329250118310
H           -3.14088573942425       -3.63354932661925       -0.98739007857530
H           -3.50722435491229       -2.04946192417301       -0.15966755280898
H            1.97755316571633       -2.86773298477590        0.16992626820609
