25
 energy: 42.121611509600 xtb: 6.6.1 (8d0f1dd)
C            3.46742497239100        1.72630790403480        0.11892320614719
N            2.77510173283655        0.44496024429319        0.04355906053770
C            3.23134653219905       -0.80749536987886        0.10037000069162
N            2.20438434040127       -1.69584353167052        0.06858069024851
C            1.01687359447272       -0.99108853029415       -0.00546395334045
C            1.40853964002218        0.35667183582713       -0.02566143420547
C            0.41725000340185        1.38643168333241       -0.09731789411212
O            0.65791572563243        2.58684980688289       -0.14655071415613
N           -0.84687405789561        0.84653800232068       -0.09378084174661
C           -1.95128120324590        1.78365229189523       -0.05166339259063
C           -1.20681173094345       -0.53339735909434       -0.06025120501300
O           -2.39124470385292       -0.76620852506734       -0.04818354621069
N           -0.20358586121685       -1.46117095118380       -0.03445381215608
C           -3.89067551399571       -3.46256194457728       -0.12711163274297
H            4.34008409691841        1.69243374495361        0.76423826587037
H            3.80663332174377        2.09908740976792       -0.84762881884118
H            2.76944636989396        2.48237093348137        0.47627530496256
H            4.25633765674991       -1.11418620231371        0.14403804865162
H           -1.49290847300402        2.76409963245026       -0.08731065963735
H           -2.61816868945250        1.62285109530731       -0.90137296542362
H           -2.50171138725438        1.64262088054870        0.87926841023738
H           -4.13213822288537       -3.91492013573235        0.79796530441251
H           -4.05495173806328       -3.95926594028028       -1.04582902695792
H           -3.80189460016242       -2.41145917509672       -0.14792215817969
H            2.26869869571055       -2.70686131091232        0.12741498710402
