25
 energy: 52.351711383674 xtb: 6.6.1 (8d0f1dd)
C            3.30703024254288        1.64899713672393        0.16376578535685
N            2.66802900944592        0.33397827177594        0.01021831160383
C            3.09657411367631       -0.93421724815300        0.10445327882620
N            2.04859058815256       -1.80925103037803        0.07509587601230
C            0.86951805781728       -1.09579358286267       -0.02765480207273
C            1.30360681637427        0.24164443435407       -0.08006218710315
C            0.37192362984087        1.30488357015524       -0.20243719573522
O            0.66800422062697        2.48809244340341       -0.32000881311328
N           -0.91579395879533        0.82993108643479       -0.14083982663467
C           -1.94095610844324        1.85474492246570       -0.04578182414724
C           -1.32999784737230       -0.51663994096393       -0.06979511850818
O           -2.53109982399068       -0.62900164758867       -0.01500713132809
N           -0.37940703333619       -1.52631133249026       -0.04758536764237
C           -3.45772053731287       -3.17681012537606       -0.11090572384981
H            4.29508467634001        1.56159433460189        0.59347652705348
H            3.38562253108503        2.25016780468961       -0.75051868835740
H            2.69553672593570        2.28234384781457        0.80548274646457
H            4.10868283329903       -1.28417764001519        0.15320032725104
H           -1.35665672596701        2.76276589947544       -0.09596242193355
H           -2.65272789593003        1.74495106690647       -0.86041900004639
H           -2.46401248533495        1.76962056179479        0.90727280662540
H           -3.52097008072593       -3.66679164516102        0.81898136129549
H           -3.44508694980568       -3.74110592208916       -0.99975991747972
H           -3.66489868953371       -2.13608623349956       -0.15542283496883
H            2.08405977125320       -2.82118017538101        0.16558565049355
