25
 energy: 49.296335361193 xtb: 6.6.1 (8d0f1dd)
C            3.35299268787776        1.66896632177784        0.14850531590173
N            2.69745291675249        0.36195104277048        0.01750605182510
C            3.13188751831008       -0.90272559771183        0.10428573268713
N            2.08992750150703       -1.78219823037066        0.07418387379282
C            0.90864648611724       -1.07126270441624       -0.02100882775903
C            1.33209899924371        0.26980325946073       -0.06614374546863
C            0.38561937629250        1.32464557340163       -0.17696169931523
O            0.66832457278568        2.51279492908126       -0.27620520410655
N           -0.89613444971796        0.83161949544093       -0.13262901915270
C           -1.94023684823234        1.83486974423166       -0.04390629121881
C           -1.29872041185387       -0.52327125682855       -0.06836663695393
O           -2.49623928337862       -0.66811555950615       -0.02520283432989
N           -0.33339105400803       -1.51087578910397       -0.04407281055281
C           -3.56525412113786       -3.24041011129135       -0.11421311843271
H            4.32940488560797        1.59333106827353        0.61141544802718
H            3.48960429601945        2.22531703329342       -0.78422158276542
H            2.72165858012032        2.33672233293190        0.73179971849631
H            4.14702436133796       -1.24225450329436        0.15204296634434
H           -1.38905027170735        2.76272889696640       -0.09334007651973
H           -2.64669089595848        1.71200258038953       -0.86381649766146
H           -2.46084656671226        1.73548902346473        0.90929058404061
H           -3.66949365175822       -3.73367093598750        0.81176075698635
H           -3.59401758491876       -3.79928988386846       -1.00764077191806
H           -3.74181307315614       -2.19151566495648       -0.15268690312509
H            2.13335443919946       -2.79446414960102        0.15857485867271
