25
 energy: 46.702376323088 xtb: 6.6.1 (8d0f1dd)
C            3.39395976302150        1.69091531510505        0.13698228722598
N            2.72508562219178        0.39120897994913        0.02446679778548
C            3.16613788762630       -0.87006595738410        0.10263123224907
N            2.12981904516081       -1.75344116233955        0.07243216481297
C            0.94624146926377       -1.04500247323292       -0.01576369586998
C            1.35897758306316        0.29897491996435       -0.05284049223788
C            0.39766324382668        1.34510398080092       -0.15101029787297
O            0.66617526179441        2.53783312081676       -0.23274667390653
N           -0.87805217222663        0.83487108941011       -0.12155640965243
C           -1.94198195438988        1.81626486123160       -0.04372375311701
C           -1.26782903183850       -0.52851430141240       -0.06634081458156
O           -2.46141845677757       -0.70404178097718       -0.03522474666396
N           -0.28848495110252       -1.49511230449931       -0.04075633652138
C           -3.67312923412625       -3.31226770255177       -0.11768266684910
H            4.34297487026963        1.62906975096681        0.65798962289825
H            3.59888673480780        2.19661241487335       -0.81064540905730
H            2.73928199458890        2.39088630876694        0.65197999306936
H            4.18433644488627       -1.19945076325052        0.14954584572156
H           -1.42286726997380        2.76300277436868       -0.09098594795616
H           -2.63890942256260        1.68074360665150       -0.87204673236606
H           -2.46921231178357        1.70203567266561        0.90455777201097
H           -3.81673761247916       -3.80465068908721        0.80510062926457
H           -3.74218181011733       -3.86313427124620       -1.01534119856675
H           -3.79615497274960       -2.25609727172275       -0.15125289903398
H            2.18055527727056       -2.76573068687285        0.14930667642350
