25
 energy: 37.705678910070 xtb: 6.6.1 (8d0f1dd)
C            3.61709834099751        1.79251840112089        0.08906208240391
N            2.86163344512183        0.56320607952625        0.06769777781267
C            3.34465038014741       -0.67165576039740        0.07446994448802
N            2.33519419569230       -1.56797847157082        0.04540234373648
C            1.14561763154569       -0.87024013616444        0.01522345645454
C            1.49500590638673        0.48359037716064        0.02815073890872
C            0.45661942801963        1.48464947043506        0.00605087407852
O            0.65033395108791        2.69317062048557        0.01732587074122
N           -0.79106245008807        0.90716641393638       -0.03097697239078
C           -1.94547022893537        1.78626162360276       -0.04996110582686
C           -1.08718259358836       -0.49680919985370       -0.04234864664862
O           -2.24531561431742       -0.83721597535131       -0.07191752569055
N           -0.05332922171622       -1.37068302255456       -0.01742105529547
C           -4.35215585294182       -3.75410367326431       -0.14918770351383
H            4.27139439781934        1.82253558087258        0.95912143418762
H            4.21620855842350        1.88402600405645       -0.81497004629381
H            2.91177603662733        2.62299912229947        0.13069026259591
H            4.38152920097856       -0.93135417979150        0.10725979869872
H           -1.58356606801317        2.81101675990440       -0.03755623836159
H           -2.53631536730738        1.60497562245085       -0.94786759701476
H           -2.57399118197582        1.58220527446476        0.81815262850551
H           -4.71344992441636       -4.17428061875287        0.75951591707975
H           -4.63609350191397       -4.18925865093056       -1.07819249899606
H           -3.80755897671484       -2.84706529654547       -0.13340088143674
H            2.41628592707469       -2.57413549132396        0.05315587911692
