25
 energy: -42.188258519411 gnorm: 0.006550984869 xtb: 6.6.1 (8d0f1dd)
C            3.09124217723349        1.20546194948644       -0.27670823618697
N            2.17236632114868        0.10509690536390       -0.18091306067750
C            2.49266577783916       -1.20086618932451       -0.12443745420629
N            1.36632694164678       -1.93989137619752        0.00974716352435
C            0.30364351739221       -1.09317440669196        0.04514952451778
C            0.80152154411922        0.21045603562530       -0.06981045629726
C           -0.07778776605509        1.28718454601869       -0.06205906117563
O            0.31388698299159        2.56192051679769       -0.23938548028895
N           -1.41492869032287        1.01452126551471        0.13635706825222
C           -2.31461890219246        2.00281477890746        0.26916073857234
C           -1.94292171443111       -0.32529770413925        0.14546833488000
O           -3.12785319243940       -0.50970600620720        0.18777351729057
N           -1.02593396179179       -1.35885806292988        0.11798515219312
C           -1.51099893957931       -2.72506196540597        0.18293661444926
H            3.33517877203845        1.58649892806045        0.71722541814565
H            4.00647938061098        0.87997301051794       -0.76675631519586
H            2.63415037801239        2.01035197451757       -0.84810031922405
H            3.48476246206832       -1.59701937557217       -0.17459048583295
H           -2.01636083000676        3.00606550969901        0.49385791046880
H           -0.46164624457152        3.09453694322282       -0.48683806109435
H           -3.34646866806722        1.73669845181351        0.28959135843463
H           -1.14595170670996       -3.21477498242666        1.08726158713895
H           -1.19266354959141       -3.28060062665862       -0.70048376002214
H           -2.59980641341841       -2.69151992678790        0.21031524925653
H            1.33614783817425       -2.94657165159409        0.06842467098095
