25
 energy: -42.441003255372 xtb: 6.6.1 (8d0f1dd)
C            3.28435376505640        1.26506998204018        0.08939973357908
N            2.36904763610655        0.15754674241635        0.05905542344784
C            2.67399964082498       -1.13681386325563        0.08751773952136
N            1.55206102030535       -1.87643733823189        0.11317595510261
C            0.45797976492103       -1.03147388476328        0.08609696007047
C            0.99069263442734        0.27968754659783        0.04978971008754
C            0.18267759103751        1.42974478585178       -0.01110187920790
O            0.55846395922774        2.60331712859170       -0.04032243108963
N           -1.18197067477425        1.07214244992471       -0.05444872624248
C           -2.13642309658363        2.16435897873062       -0.14786099836909
C           -1.73272451958750       -0.17975101524306       -0.04575825713181
O           -2.92550735375741       -0.35405741375643       -0.14943947677909
N           -0.85418371486288       -1.31199464069160        0.08571712438434
C           -1.44921887122920       -2.54102203990242        0.02682607158159
H            3.86348587537842        1.25787894364036        1.01309280498000
H            3.96573282560527        1.21119940917455       -0.75937308061639
H            2.70309905493229        2.18668572606583        0.03242924580653
H            3.67083407056632       -1.53052754437367        0.14887568753823
H           -1.54698714637642        3.07663316527115       -0.13429867909558
H           -2.70702628324988        2.10893221775629       -1.07337929636272
H           -2.82443347273386        2.15493777566396        0.69634112451419
H           -0.86457890555028       -3.36148076717671       -0.36821947392248
H           -2.42474887022712       -2.43493978722988       -0.49915436530591
H           -3.36182445807008       -4.32145373084172        0.11653980502774
H            1.52581402470665       -2.88676506217713        0.11782923039790
