  25
        -42.18202699
 C          3.1854506676        1.0839625324        0.1220420912
 N          2.3179492261        0.0863987086        0.0506470454
 C          2.5709359203       -1.2337666604       -0.0841931048
 N          1.3889003683       -1.9430409090       -0.1112544036
 C          0.3713886599       -1.0937054725        0.0064520725
 C          0.9190873322        0.2086124433        0.0791392884
 C          0.0803664709        1.3058757964        0.0044252416
 O          0.4813215972        2.5593463453       -0.1025498018
 N         -1.2537259676        1.0627917207        0.0035868178
 C         -2.2075809192        2.1605440220       -0.0641536459
 C         -1.8384065399       -0.2167342865        0.0400083925
 O         -3.0266957834       -0.3509975470        0.0641299903
 N         -0.9670503657       -1.3039649007        0.0241963147
 C         -1.5166365204       -2.6468383746        0.0099179409
 H          2.9114550770        2.0449826877        0.5087324094
 H          4.2234056711        0.8674745552        0.0068783403
 H          1.4481130476        2.6042353313       -0.2385751126
 H          3.5417099286       -1.6679600202       -0.1608021894
 H         -1.6724771367        3.1042867124       -0.0614056676
 H         -2.8040904540        2.0679351144       -0.9714016468
 H         -2.8805384013        2.1053518878        0.7908958142
 H         -1.1732645224       -3.2034242335        0.8822567119
 H         -1.2268035318       -3.1670081618       -0.9034810716
 H         -2.6014631052       -2.5621855046        0.0436631180
 H          1.3425769876       -2.9472552451       -0.1848986930
