  72
        -99.34208002
 N         -2.4167276319        3.0535952791        2.9007081553
 C         -2.1114088618        2.3548569757        1.9118133774
 C         -3.0038348619        2.1734450003        0.7066445329
 C         -3.4813855797        0.7359437907        0.6399544419
 C         -4.2066135005        0.2826839868       -0.4606758979
 C         -4.6188765770       -1.0364985382       -0.5829370066
 O         -5.3190843446       -1.5570462637       -1.6067463248
 C         -5.7945557371       -0.7067221259       -2.6257514953
 C         -4.2807673079       -1.9675436627        0.4518091180
 O         -4.6512531231       -3.2421894273        0.2852556158
 C         -4.3781683934       -4.1107893797        1.3641967821
 C         -3.6018326468       -1.4590814148        1.5268116699
 C         -3.2036171658       -0.1677848120        1.6745348256
 C         -2.1357175251        2.5200055949       -0.5434213198
 C         -1.4023736145        1.3769145429       -1.2546040870
 C         -0.3994341921        0.6090635380       -0.3870859763
 N          0.4928541063       -0.1925062977       -1.1977056798
 C          1.8299074003       -0.3764547778       -0.6830786494
 C          2.8679794228       -0.5310740709       -1.8112067158
 C          4.2490679302       -0.3729095041       -1.2469653834
 C          4.8843739353        0.8626761252       -1.2522772078
 C          6.1385570386        1.0209499364       -0.6869702527
 C          6.7891275528       -0.0550214891       -0.0945291092
 O          7.9981673430       -0.0156684649        0.4884415434
 C          8.7177827115        1.1962704415        0.5110118367
 C          6.1476503918       -1.3280625168       -0.0851611845
 O          6.8442337452       -2.3165799569        0.5023592318
 C          6.2982933532       -3.6141692372        0.5502295004
 C          4.8913039327       -1.4593460995       -0.6598006061
 C         -0.1039291392       -1.3840401658       -1.7433453003
 C         -4.2547615092        3.1030969148        0.7558886785
 C         -5.1960653113        2.7266017912        1.8969286507
 C         -3.8927234893        4.5822839402        0.8523737247
 H         -4.4612582044        0.9832291633       -1.2399997264
 H         -6.4479045352        0.0724283078       -2.2228860858
 H         -6.3654141459       -1.3466630929       -3.2955779741
 H         -4.9719050443       -0.2453847930       -3.1811964300
 H         -4.9392379485       -3.8130501380        2.2550815521
 H         -4.6887047567       -5.1030143566        1.0454463864
 H         -3.3101750819       -4.1081954084        1.6037144451
 H         -0.9468368406       -0.0247013248        0.3307969662
 H         -2.6928191328        0.1568782783        2.5669213163
 H         -2.7847730792        2.9854802552       -1.2866490596
 H         -1.4026277472        3.2718237921       -0.2430382496
 H         -2.1272500611        0.6779166547       -1.6696890261
 H         -0.8497548200        1.8153369569       -2.0888249594
 H         -1.1492755393        1.8352468631        1.8174293785
 H          0.2107331982        1.3297168384        0.1608227490
 H          1.8886560441       -1.2516400404       -0.0170340780
 H          2.1015612964        0.5064338864       -0.1003449375
 H          2.6768959336        0.2372065017       -2.5603405846
 H          2.7707703193       -1.5090868568       -2.2819255969
 H          4.4001871384        1.7122876488       -1.7086505740
 H          6.6074875786        1.9910613849       -0.7113787177
 H          8.1838481375        1.9675366307        1.0745091938
 H          8.9230393469        1.5584243380       -0.5005101987
 H          9.6571610440        0.9690721396        1.0113063781
 H          7.0373734492       -4.2240441779        1.0661521264
 H          5.3585401549       -3.6324753885        1.1109827280
 H          6.1338785453       -4.0160046990       -0.4540363551
 H          4.3985869248       -2.4187729161       -0.6630945497
 H         -1.0194438482       -1.1296866937       -2.2720789596
 H         -0.3477607667       -2.1182666156       -0.9618263699
 H          0.5804836440       -1.8442687924       -2.4515655056
 H         -4.7924875964        2.9487071532       -0.1870563090
 H         -4.6962928773        2.8597268988        2.8512282150
 H         -5.5266803620        1.6941426526        1.8130278589
 H         -6.0718174868        3.3697832868        1.8751733812
 H         -3.4038969082        4.7875818340        1.7999687473
 H         -3.2393971113        4.8944953446        0.0424656470
 H         -4.8009239562        5.1775133517        0.8022647851
 H         -1.7422880874        3.1389442077        3.6543934007
