25
 energy: 0.000000000000 xtb: 6.6.1 (8d0f1dd)
C            3.23720163006194        1.16630919979326        0.08434469647475
N            2.29877817382611        0.07527477071623        0.03981603040599
C            2.58028210190900       -1.21425402444508        0.03006176031096
N            1.43813958087363       -1.93419271955128        0.00098261760884
C            0.39035688448383       -1.05887472636071       -0.00790371836672
C            0.93510056364412        0.21347819449412        0.01709077491437
C            0.09450143893243        1.40504303904423       -0.00410947031874
O            0.49712751527797        2.54126714362870       -0.00342325688240
N           -1.25076640035757        1.06271879480407       -0.03085478223738
C           -2.21907211982101        2.15522099834493       -0.05001256985998
C           -1.81739487048744       -0.20012725993278       -0.04692818574614
O           -2.99983886758376       -0.37846417018721       -0.07008878229737
N           -0.92618586207120       -1.30210215599479       -0.03682761578324
C           -1.46982264913417       -2.64643102187190       -0.06029820460571
H            3.71247264356769        1.21471455160235        1.06488849150277
H            4.00791497605742        1.03430808813993       -0.67357694370751
H            2.69910007168542        2.09770118228144       -0.09130154882931
H            3.56654120610678       -1.63682992603973        0.04233140067262
H           -1.67107961066214        3.09322851271934       -0.02552706933167
H           -2.82428953597071        2.09428624779827       -0.95318082946668
H           -2.87644029173232        2.07745725625962        0.81450067533302
H           -1.17061996399332       -3.19584890659852        0.83242232437030
H           -1.14560257411436       -3.17511610292205       -0.95688275822323
H           -2.55549792440841       -2.55659984320617       -0.07459039797972
H            1.38130855184625       -2.94313852034425       -0.01389874181052
25
 energy: -2.261274653665 xtb: 6.6.1 (8d0f1dd)
C            3.28233448359360        1.16970498914614        0.05926644610971
N            2.31046871641047        0.10579471181747        0.01504704539264
C            2.59091952135846       -1.22306011451994        0.02360965271351
N            1.41897617545184       -1.93009234661356       -0.00105508433542
C            0.38767979477333       -1.04743693958407       -0.01047086274780
C            0.92451970880989        0.23315677695021        0.00682294392089
C            0.08192975779396        1.40023848154326       -0.00279325682680
O            0.46975131143753        2.56839968652815        0.00245237733059
N           -1.28018888076197        1.04987918283566       -0.02957372577896
C           -2.24866725161321        2.14061193790253       -0.04807285248904
C           -1.83817610541125       -0.20362569466135       -0.04728253834577
O           -3.03392912152497       -0.39163869599110       -0.06992058256795
N           -0.94329762973925       -1.29893002182341       -0.03604736026345
C           -1.47869593329928       -2.64355616828906       -0.05605524252373
H            3.76736998170752        1.19760789168629        1.01658212631393
H            4.19038300389235        1.03929610575609       -0.58603008426741
H            2.73896362440853        2.10634286396251       -0.09369433956786
H            3.56723903740062       -1.64922158806342        0.03924705073106
H           -1.69623171427141        3.07718362859584       -0.02307362959209
H           -2.85491243669400        2.08416322647304       -0.95197245489526
H           -2.90733089077629        2.06612201199117        0.81674907270843
H           -1.17774252042508       -3.19185311522341        0.83865795732938
H           -1.14793972543369       -3.17768710737498       -0.94900235948689
H           -2.56475365542214       -2.55828612890769       -0.07376113359800
H            1.35354541627070       -2.93408497196434       -0.01259526911641
25
 energy: 7.819886856362 xtb: 6.6.1 (8d0f1dd)
C            3.35471414264297        1.16153019469292        0.03211522027828
N            2.32777830682358        0.14033043601502       -0.02981498786124
C            2.59245955735009       -1.22247876623536        0.01015426249071
N            1.39512714658590       -1.91061718861774       -0.00484560074699
C            0.38340630861595       -1.02455694038587       -0.01613120850618
C            0.91564487039133        0.26503091036920       -0.01468203828707
C            0.06246025695256        1.39665379240693       -0.00357574686387
O            0.41451049068797        2.58733503101888        0.01403698391556
N           -1.32100739894451        1.03819327592640       -0.02806704254690
C           -2.29499870367209        2.12239365883343       -0.04499717647830
C           -1.86032982339242       -0.20773146180462       -0.04704862529765
O           -3.05994603942969       -0.41257978177361       -0.06983657259995
N           -0.96047536382700       -1.28939955548295       -0.03424312669729
C           -1.48632310614622       -2.63699069424769       -0.04848236779833
H            3.83858638207882        1.16303009255070        0.98097797070749
H            4.42160704129015        1.02650869039154       -0.47405963021414
H            2.82678917609987        2.11056070577024       -0.11034397923423
H            3.55826091439330       -1.65507723437697        0.03253671782318
H           -1.74449021448698        3.06048468041481       -0.01916520738098
H           -2.90379202719991        2.06615667873075       -0.94847381810288
H           -2.95641786395378        2.04606852830864        0.81871896462382
H           -1.18973069612085       -3.18345451980025        0.85041539176601
H           -1.15034778702963       -3.18073158061596       -0.93546912909150
H           -2.57368004801999       -2.55908331041325       -0.07275262454498
H            1.32240914624685       -2.91254703950319       -0.00993273320524
25
 energy: 15.062481542092 xtb: 6.6.1 (8d0f1dd)
C            3.42486954604385        1.14276049104435        0.02384927416655
N            2.34490343539258        0.15872794465621       -0.06418201947055
C            2.58728144836245       -1.21479397141305       -0.00594280520597
N            1.38397083672501       -1.89042587050192       -0.00937908144625
C            0.38073052819349       -1.00242540323586       -0.02320029099641
C            0.91652732700133        0.29198690877079       -0.03371979801858
C            0.04445459452014        1.40771249464554       -0.00541631285694
O            0.36531361355800        2.60540109029100        0.02365987112559
N           -1.34961734167916        1.03769301789410       -0.02826171990724
C           -2.33766858391158        2.10891264498882       -0.04446652582610
C           -1.87587623627564       -0.21061522059121       -0.04802436551563
O           -3.07387760841965       -0.43032378013355       -0.07151599247770
N           -0.96596092339705       -1.27904978715228       -0.03335652026297
C           -1.48696386494513       -2.62983555132083       -0.04025233520353
H            3.88613142178314        1.11655637684262        0.98437486772916
H            4.55298372301032        0.99970036699842       -0.42303753825472
H            2.93178055633210        2.11137069752669       -0.11581301010427
H            3.54888403286731       -1.65557685091116        0.02387134450338
H           -1.79992759556011        3.05357676906041       -0.01741966311157
H           -2.94796121489885        2.04513554653569       -0.94725173611031
H           -3.00146314735408        2.02310069361110        0.81737247608397
H           -1.19869448635794       -3.17082475998452        0.86484364125997
H           -1.14803370070350       -3.18157647270857       -0.92123721878698
H           -2.57543920647608       -2.55539761148599       -0.07188066037317
H            1.30586751412536       -2.89276116125474       -0.00657998479244
25
 energy: 16.550128481021 xtb: 6.6.1 (8d0f1dd)
C            3.46169391241258        1.12755307543920        0.02570126368682
N            2.35423178016761        0.16422132107754       -0.08319636857460
C            2.58185353346085       -1.20708375757701       -0.01863664200494
N            1.38232280778115       -1.87823148719046       -0.01222241512478
C            0.37925006335429       -0.98892789052330       -0.02760075360830
C            0.91881074423030        0.30643395563692       -0.04348501620892
C            0.03586984487463        1.41923712183854       -0.00688291734495
O            0.33884023803554        2.61520221446206        0.02938506951708
N           -1.36107182135440        1.04046921320969       -0.02960432937535
C           -2.35968339010196        2.10245236775171       -0.04598723037877
C           -1.88263720381838       -0.21174700350363       -0.04876304929342
O           -3.07784299748104       -0.43794077248104       -0.07348090156024
N           -0.96531767526963       -1.27270731493051       -0.03262247769773
C           -1.48421190023562       -2.62546222695885       -0.03434474828912
H            3.90543575091747        1.07774786102727        0.99312885761146
H            4.59485020792136        0.98261375997972       -0.41271914900794
H            2.99387122547087        2.10903200362823       -0.10721944331172
H            3.54305012932915       -1.65212948558582        0.01802225001853
H           -1.83493277925814        3.05381051841945       -0.01795180053037
H           -2.97031469126364        2.03108973862813       -0.94842365513060
H           -3.02456112103724        2.00797051980552        0.81463489265503
H           -1.20275118762944       -3.16075962683553        0.87591522094995
H           -1.14279706618954       -3.18171430476909       -0.91085077478956
H           -2.57308836750977       -2.55096511531476       -0.07170745742563
H            1.30134463112931       -2.88113608306189       -0.00405452863459
25
 energy: 15.606824656430 xtb: 6.6.1 (8d0f1dd)
C            3.46999872041577        1.12130205266519        0.02930287120217
N            2.35736261614505        0.16423610085899       -0.09336816869874
C            2.57904415862119       -1.20262379643492       -0.02602677721320
N            1.38373545058258       -1.87356736983830       -0.01284183238681
C            0.37869183034850       -0.98380122755752       -0.02897001695649
C            0.91989235878831        0.31110548914576       -0.04709646199608
C            0.03535361281977        1.42498486914202       -0.00855534589059
O            0.33043995335053        2.61879085378396        0.03248685422280
N           -1.36165957059124        1.04159481604508       -0.03129528039527
C           -2.36401007074385        2.10042685030899       -0.04755213449130
C           -1.88354344095769       -0.21203644146095       -0.04913661239480
O           -3.07713979214150       -0.43874611098942       -0.07430085274918
N           -0.96359531101162       -1.27062332011870       -0.03158981141110
C           -1.48187357313816       -2.62407068319344       -0.03140138140016
H            3.90752580109776        1.05601254180028        0.99771256248362
H            4.59080356208080        0.97889235464968       -0.41648158770388
H            3.01100192830076        2.10629271303750       -0.09631972597906
H            3.54079644309788       -1.64865114313061        0.01720668610286
H           -1.84536945220296        3.05470884382087       -0.01907411646650
H           -2.97456660528149        2.02609034405604       -0.94989685975678
H           -3.02886064987919        2.00250923464667        0.81285213296532
H           -1.20380262476399       -3.15635096564206        0.88127189106624
H           -1.13844108095229       -3.18188481792971       -0.90555553323555
H           -2.57074965946788       -2.54898734053178       -0.07202131818410
H            1.30118006341923       -2.87657524496153       -0.00231528458611
25
 energy: 14.761134224744 xtb: 6.6.1 (8d0f1dd)
C            3.46978396948548        1.11944652884037        0.03143825625381
N            2.35871949945051        0.16403396835530       -0.10426635817567
C            2.57785180601230       -1.20030901930303       -0.03226983969828
N            1.38476987732654       -1.87163719387624       -0.01254448925134
C            0.37851965888030       -0.98171352927171       -0.02926704297316
C            0.92010687325254        0.31299120448242       -0.05001354157457
C            0.03727533629985        1.42758169872898       -0.01025212800743
O            0.32738860047288        2.62099731779925        0.03460633745701
N           -1.36016879283613        1.04132980244904       -0.03281111945503
C           -2.36322871705649        2.09962311728436       -0.04875807789028
C           -1.88311765457313       -0.21224519706247       -0.04903476500176
O           -3.07616771910528       -0.43833905944331       -0.07419467823108
N           -0.96255836579269       -1.27021803383334       -0.02995994877061
C           -1.48043912764918       -2.62389358552536       -0.02938709647921
H            3.90448982099877        1.04120388092660        0.99998125766648
H            4.58199327858725        0.98088031282291       -0.41851480435286
H            3.01327159624730        2.10550936801159       -0.08682304143002
H            3.53985563261527       -1.64638152860279        0.01903278693572
H           -1.84656032557442        3.05471531144483       -0.02011073491912
H           -2.97381906013861        2.02474430365959       -0.95102014779360
H           -3.02773517700200        2.00096241228048        0.81183449351892
H           -1.20412095072661       -3.15489391346277        0.88432708988849
H           -1.13539323604150       -3.18226913549067       -0.90229243453852
H           -2.56922340483177       -2.54859469887548       -0.07203159484139
H            1.30072124963512       -2.87449573016649       -0.00063448218918
25
 energy: 14.390350557792 xtb: 6.6.1 (8d0f1dd)
C            3.46771350569029        1.11940610964341        0.03232758203602
N            2.35945659663794        0.16416380683384       -0.11636207908434
C            2.57768994015694       -1.19945508040353       -0.03848040562944
N            1.38523241542900       -1.87091579590724       -0.01182538843534
C            0.37858779573952       -0.98103609969670       -0.02899760262690
C            0.91996986232481        0.31375979253454       -0.05279945124341
C            0.03947739494720        1.42841432207533       -0.01158822674192
O            0.32654884051932        2.62213968012864        0.03558040936015
N           -1.35906754038983        1.04071698521354       -0.03390774559803
C           -2.36169016578080        2.09942962905329       -0.04966957326979
C           -1.88259585706322       -0.21234487605507       -0.04853362841877
O           -3.07567078939874       -0.43808774425639       -0.07357315178085
N           -0.96214737224713       -1.27042569760355       -0.02786538936609
C           -1.47972285595127       -2.62411595360177       -0.02776112960207
H            3.90025843593672        1.03047386950418        1.00096403794585
H            4.57725141855634        0.98565756363225       -0.41749383002444
H            3.01103390747974        2.10598123008682       -0.07871068012021
H            3.53955368285736       -1.64522089768669        0.02215047291058
H           -1.84486308542761        3.05438058921507       -0.02102465779993
H           -2.97240718171692        2.02486859547083       -0.95183501450677
H           -3.02589256905404        2.00115850291686        0.81118773745076
H           -1.20427807859882       -3.15496734154189        0.88623246871506
H           -1.13365031792445       -3.18255307628016       -0.90020334564308
H           -2.56842207354531       -2.54883008849386       -0.07154842798771
H            1.29984875875925       -2.87356942260972        0.00077091560800
25
 energy: 14.354664390284 xtb: 6.6.1 (8d0f1dd)
C            3.46570629008004        1.12007979055767        0.03259908322395
N            2.35969242626179        0.16435469118882       -0.12707459509051
C            2.57823165332560       -1.19956759096862       -0.04425164041375
N            1.38547379037889       -1.87093156373238       -0.01086776878730
C            0.37885947571564       -0.98130041955039       -0.02823346148124
C            0.91983829734636        0.31364916110421       -0.05472171102554
C            0.04102719687376        1.42819199796997       -0.01250293613038
O            0.32719647973686        2.62218887093693        0.03528454541882
N           -1.35874636697636        1.04035906776352       -0.03448796061575
C           -2.36060975251303        2.09971201596426       -0.05026149457012
C           -1.88218748411075       -0.21227673726462       -0.04789363094677
O           -3.07548631808691       -0.43815500070427       -0.07285021468109
N           -0.96203106813774       -1.27078606674372       -0.02569773242201
C           -1.47954866594703       -2.62435611137253       -0.02660123713914
H            3.89644656545474        1.02356802372183        1.00124297003075
H            4.57624167536967        0.99111956908605       -0.41528177800580
H            3.00758399912066        2.10682802131170       -0.07258857435176
H            3.53970152971597       -1.64474760285178        0.02593018295118
H           -1.84265791165934        3.05414624626673       -0.02177543956303
H           -2.97145071056052        2.02562896642729       -0.95233968756404
H           -3.02464762952508        2.00222932513388        0.81079976026312
H           -1.20429762697910       -3.15585310483339        0.88711028990582
H           -1.13319492481938       -3.18245506499424       -0.89925837908009
H           -2.56821094679695       -2.54914216507793       -0.07067230888350
H            1.29928469466854       -2.87345571716694        0.00142761510550
25
 energy: 14.448663891565 xtb: 6.6.1 (8d0f1dd)
C            3.46499087709981        1.12058416149533        0.03265168502560
N            2.35948773797336        0.16448348476393       -0.13195332623465
C            2.57883497181370       -1.19994084908293       -0.04784272239778
N            1.38563731453201       -1.87118132950058       -0.01014207313817
C            0.37912712760747       -0.98180926743523       -0.02739277244158
C            0.91986761720498        0.31317631038564       -0.05500235482483
C            0.04127214608318        1.42770098087043       -0.01287922497094
O            0.32815836814622        2.62170110137743        0.03439211469416
N           -1.35902244834004        1.04043900781814       -0.03451279099094
C           -2.36049208236776        2.10007237875290       -0.05045043904251
C           -1.88203851212432       -0.21213517034601       -0.04752641885857
O           -3.07544995201545       -0.43838445777723       -0.07258849923161
N           -0.96200016469407       -1.27091839712152       -0.02438078827655
C           -1.47966545257968       -2.62438374345299       -0.02616753799391
H            3.89497873041757        1.02096199330739        1.00113719718664
H            4.57710599526956        0.99401363268758       -0.41411244440360
H            3.00580389573883        2.10734511966311       -0.07008529596601
H            3.53994879954623       -1.64451868545393        0.02893275129313
H           -1.84175369736900        3.05418154196444       -0.02214652862663
H           -2.97137181253868        2.02616043249979       -0.95249552209617
H           -3.02453047015738        2.00306779408698        0.81065980425577
H           -1.20418489505791       -3.15662560163341        0.88709177561075
H           -1.13358975294678       -3.18204264938376       -0.89932050088865
H           -2.56834490015125       -2.54919681475094       -0.06993628462880
H            1.29944522684569       -2.87372237156250        0.00110409309316
25
 energy: 14.570483362599 xtb: 6.6.1 (8d0f1dd)
C            3.46466026436117        1.12108202040211        0.03282884482220
N            2.35878694937005        0.16474025577463       -0.13676909706929
C            2.57968378600753       -1.20039850479296       -0.05409551226972
N            1.38594142492311       -1.87151389148639       -0.00904191912186
C            0.37951242455683       -0.98251321720809       -0.02576817561773
C            0.92005805440019        0.31238792296569       -0.05426181337139
C            0.04078265699957        1.42699970007568       -0.01330037397690
O            0.32956931827298        2.62083870831446        0.03270856393056
N           -1.35961048837105        1.04084095964344       -0.03424044342261
C           -2.36083152542326        2.10056347153669       -0.05062009951294
C           -1.88191218882794       -0.21188547590157       -0.04714197571168
O           -3.07535326487929       -0.43874556309440       -0.07270069859655
N           -0.96187831418607       -1.27086312349555       -0.02249581626931
C           -1.47986288834328       -2.62423619008786       -0.02571456412379
H            3.89416194269729        1.01758596680959        1.00083286225708
H            4.57843112090011        0.99690451751871       -0.41365206604489
H            3.00453262725901        2.10796638585461       -0.06737153887573
H            3.54022921841373       -1.64379306346667        0.03477421255240
H           -1.84143016383907        3.05442915517752       -0.02259523417516
H           -2.97169239529043        2.02661086201745       -0.95266291172099
H           -3.02497302124395        2.00398841697094        0.81045737723281
H           -1.20384613157852       -3.15763551899218        0.88675334576179
H           -1.13443547529279       -3.18108440071594       -0.89977718973447
H           -2.56859450951346       -2.54904980621540       -0.06879902255030
H            1.30028524656381       -2.87419098543244       -0.00031285824420
25
 energy: 14.561767346902 xtb: 6.6.1 (8d0f1dd)
C            3.46502337051204        1.12094672868457        0.03301186878553
N            2.35815475333290        0.16506766593856       -0.13767898632623
C            2.57987978487850       -1.20036688759446       -0.05982377525002
N            1.38607115855946       -1.87146623716027       -0.00861506398452
C            0.37961258454481       -0.98250911179645       -0.02460197736858
C            0.92023687390763        0.31222641493564       -0.05305565360245
C            0.03993891237192        1.42687371668608       -0.01338851619813
O            0.32978579204645        2.62056994059748        0.03191425878752
N           -1.35975752630216        1.04113362915667       -0.03386968814970
C           -2.36120262215533        2.10060130183397       -0.05070030723524
C           -1.88190803859619       -0.21181107304285       -0.04709535841868
O           -3.07524847630992       -0.43879143057651       -0.07333783992233
N           -0.96173582173658       -1.27059296150707       -0.02145606517577
C           -1.47983488987012       -2.62403849197297       -0.02543762126723
H            3.89489217352141        1.01511020923852        1.00045365952066
H            4.57845965149754        0.99721680488197       -0.41477596086402
H            3.00526809158834        2.10805649241120       -0.06604517549990
H            3.53997628372175       -1.64272179102973        0.04027421744695
H           -1.84213258098808        3.05463143882094       -0.02275539076236
H           -2.97195236876379        2.02634405334145       -0.95281057462622
H           -3.02548380805542        2.00391547656953        0.81026360765554
H           -1.20359045844189       -3.15784394563260        0.88668444607520
H           -1.13464147296742       -3.18043198791924       -0.89990223077033
H           -2.56859065415935       -2.54882873811935       -0.06830329299267
H            1.30099395579981       -2.87426261457302       -0.00191468370969
25
 energy: 14.427518023919 xtb: 6.6.1 (8d0f1dd)
C            3.46539712882837        1.12033139232442        0.03335209890974
N            2.35662420453942        0.16614181558797       -0.14122640940516
C            2.58017147810394       -1.20030439516774       -0.08150890170225
N            1.38617401534197       -1.87114317497795       -0.00830183209147
C            0.37977044934006       -0.98198432292636       -0.02138713678428
C            0.92064253261374        0.31226889628707       -0.05042130037560
C            0.03808255589839        1.42687512409988       -0.01335837012061
O            0.32962193782552        2.62033596245863        0.03056458632579
N           -1.35938763285654        1.04157596884453       -0.03279434872880
C           -2.36153389817413        2.10043009975583       -0.05104557224170
C           -1.88176004643279       -0.21182403333616       -0.04685384890020
O           -3.07491686213200       -0.43851291468436       -0.07520065760581
N           -0.96131158645258       -1.26994957191237       -0.01829178234181
C           -1.47947362440092       -2.62367157436803       -0.02417673731656
H            3.89649232195270        1.00665912058853        0.99922804767143
H            4.57731757701736        0.99866139997152       -0.41813790832384
H            3.00700197328031        2.10821466067990       -0.06089962676742
H            3.53841032603496       -1.63902127629922        0.06040256616749
H           -1.84356348575169        3.05495901199039       -0.02322767025474
H           -2.97183995185814        2.02529775117306       -0.95342168340664
H           -3.02623129129061        2.00342901732052        0.80957029373322
H           -1.20312161139527       -3.15814791113637        0.88735690499969
H           -1.13424421706381       -3.17905271302025       -0.89926258194176
H           -2.56822870600356       -2.54842203407324       -0.06720217506600
H            1.30212108097159       -2.87411769700812       -0.00672205828536
25
 energy: 14.368311137956 xtb: 6.6.1 (8d0f1dd)
C            3.46527233175047        1.12003028481545        0.03322183969298
N            2.35633070466049        0.16634688671626       -0.14078842298252
C            2.58032486326366       -1.20065078976234       -0.09022920623606
N            1.38605689841255       -1.87113311157948       -0.00891445648132
C            0.37986068224424       -0.98174156450958       -0.02046405166331
C            0.92078648335335        0.31228802398283       -0.04974674461706
C            0.03771925238730        1.42691955629234       -0.01290682225991
O            0.32941362483301        2.62027616348214        0.03069609101718
N           -1.35899186147196        1.04159160974617       -0.03237082383334
C           -2.36140840080542        2.10031592908960       -0.05109296825145
C           -1.88160419458408       -0.21193203139979       -0.04673950180309
O           -3.07475764063373       -0.43829963038062       -0.07570455190715
N           -0.96109475690288       -1.26983706807190       -0.01760104537365
C           -1.47927174960835       -2.62362184010495       -0.02382630358959
H            3.89716583735391        1.00544701243163        0.99865276488099
H            4.57675646316248        0.99863703637522       -0.41918432473714
H            3.00729398383722        2.10807054560384       -0.06010076181618
H            3.53692711733763       -1.63738233155748        0.06839800941725
H           -1.84377628619644        3.05499497563751       -0.02330195222862
H           -2.97150164207787        2.02487963192087       -0.95358201671912
H           -3.02625516013382        2.00322559350444        0.80938606234835
H           -1.20316292311893       -3.15808374282945        0.88773485576250
H           -1.13379365035125       -3.17890672636283       -0.89884229349199
H           -2.56800852795857       -2.54834492171142       -0.06719290427707
H            1.30193321918328       -2.87406088915642       -0.00846657470331
25
 energy: 14.222790831757 xtb: 6.6.1 (8d0f1dd)
C            3.46476536270351        1.11950384948152        0.03269856293994
N            2.35629417131264        0.16639141654742       -0.14010596905605
C            2.58073708260901       -1.20161290539528       -0.10552185642539
N            1.38576893366733       -1.87114165705135       -0.01088059101288
C            0.38006650543516       -0.98127583639596       -0.01955155086012
C            0.92099615545746        0.31236826880281       -0.04975475819001
C            0.03779263335582        1.42716552095226       -0.01200511414116
O            0.32883296291224        2.62037115602297        0.03175706351687
N           -1.35821019083087        1.04145171915523       -0.03191185026176
C           -2.36097791986585        2.10010562940046       -0.05105384763225
C           -1.88125227718737       -0.21216901234295       -0.04643571570130
O           -3.07445395881656       -0.43796900281970       -0.07587851327510
N           -0.96063176151996       -1.26979662019596       -0.01697131814202
C           -1.47882978722185       -2.62362793063394       -0.02328059342226
H            3.89753142496224        1.00463404953374        0.99807944891460
H            4.57565704489136        0.99848074189705       -0.42024386274909
H            3.00738549576809        2.10784798397043       -0.05965579542992
H            3.53409909079065       -1.63478337223224        0.08307314508337
H           -1.84370788784979        3.05494097425132       -0.02332384968965
H           -2.97081095366247        2.02428174548919       -0.95364932389301
H           -3.02591167951831        2.00292953531704        0.80931481433798
H           -1.20341086899569       -3.15782530039202        0.88857547145881
H           -1.13275726095446       -3.17907409197017       -0.89788210233531
H           -2.56751905074064       -2.54828435570381       -0.06744413987901
H            1.30076140123459       -2.87388390351596       -0.01091385800793
25
 energy: 14.180852619159 xtb: 6.6.1 (8d0f1dd)
C            3.46436096161437        1.11944161636134        0.03208995758773
N            2.35700171406370        0.16578416310930       -0.13830360757742
C            2.58102146577867       -1.20232439660897       -0.10533073599112
N            1.38558499489742       -1.87130748587866       -0.01230480044004
C            0.38014697253235       -0.98127578981598       -0.02050264130907
C            0.92097630293417        0.31233617782225       -0.05103135296448
C            0.03883812756470        1.42733640858590       -0.01144684135366
O            0.32855840645108        2.62051597986849        0.03327078087178
N           -1.35797833907920        1.04117836777015       -0.03226538567351
C           -2.36058620141862        2.10006575214628       -0.05080942606017
C           -1.88109827928464       -0.21226559573779       -0.04633243126636
O           -3.07438244462568       -0.43799415216986       -0.07490707298127
N           -0.96045792655374       -1.27004326171509       -0.01818973435971
C           -1.47870366388343       -2.62376501004928       -0.02363630016438
H            3.89670351633763        1.00847271177283        0.99836291420584
H            4.57537105393796        0.99746767350397       -0.41925150075854
H            3.00673677088365        2.10759684538944       -0.06228541513438
H            3.53308179459409       -1.63488876358967        0.08387464020281
H           -1.84304010133345        3.05476983652079       -0.02302945811508
H           -2.97058042470069        2.02448972989449       -0.95328128550307
H           -3.02529605225026        2.00294831477723        0.80972192957392
H           -1.20371808827738       -3.15751740241104        0.88864737151812
H           -1.13237841973842       -3.17976964265288       -0.89774050999049
H           -2.56736940697779       -2.54835446254915       -0.06812395569112
H            1.29942193446977       -2.87386901217202       -0.01016124247899
25
 energy: 14.158281066112 xtb: 6.6.1 (8d0f1dd)
C            3.46427433953168        1.11955145813577        0.03178250666102
N            2.35728774120175        0.16555267253910       -0.14053359677372
C            2.58131148539776       -1.20256525068734       -0.10631395984579
N            1.38566400038078       -1.87132985492043       -0.01275126702475
C            0.38020440486655       -0.98140065582583       -0.02088694797516
C            0.92095040049876        0.31228580183368       -0.05204243742776
C            0.03946900038858        1.42738550493396       -0.01156368611132
O            0.32861272847095        2.62059920563629        0.03377055990939
N           -1.35820156365122        1.04111896791943       -0.03262440655471
C           -2.36055969483070        2.10015718813074       -0.05068391124108
C           -1.88110305542905       -0.21218361951886       -0.04614428645400
O           -3.07440039344239       -0.43823414926208       -0.07413073240095
N           -0.96040736153057       -1.27014662580753       -0.01839742132501
C           -1.47871874076162       -2.62379463230017       -0.02367841161341
H            3.89538211286424        1.00880559624716        0.99874443714502
H            4.57560032104836        0.99794198108026       -0.41821314631995
H            3.00631521172253        2.10771317754600       -0.06275936539935
H            3.53367737021775       -1.63544374474014        0.08623570647957
H           -1.84266778660778        3.05471040164111       -0.02289636575776
H           -2.97080911688199        2.02486050836528       -0.95300092588791
H           -3.02504978874126        2.00315205372321        0.81003491124688
H           -1.20371537162645       -3.15764395910533        0.88858336866606
H           -1.13253623358448       -3.17985046157692       -0.89782373830633
H           -2.56739216678110       -2.54834216002900       -0.06804028804735
H            1.29902682521525       -2.87387080178629       -0.00963269949434
