72
 energy: -99.641051848406 xtb: 6.6.1 (8d0f1dd)
N           -1.96526359872680        3.27203693841360        2.29260477253280
C           -1.95350597400761        2.38412499796665        1.40055666428147
C           -3.06818991676472        2.19929571567371        0.39190362837104
C           -3.57556586071495        0.76768000215920        0.42544099697403
C           -4.43663737981794        0.29917542714889       -0.57314506779643
C           -4.92944642146408       -0.99368808328988       -0.55492881075412
O           -5.77912080757365       -1.52342210840288       -1.48507775027145
C           -6.28000040204006       -0.67585049994654       -2.48509417366007
C           -4.54992067469842       -1.87058391853131        0.48754657951211
O           -5.07914358958886       -3.12706524638228        0.42626137820384
C           -4.77234272848362       -4.01881754962964        1.46684446226453
C           -3.70826286898730       -1.40178619858785        1.48019014576956
C           -3.23448547504724       -0.09535235016198        1.45128094271995
C           -2.43925376391898        2.52132027122523       -0.98221367439728
C           -1.48259409274403        1.46730533116158       -1.55583347442083
C           -0.20316515767743        1.36317648115189       -0.81401642876029
N            0.37339339824706        0.21322326445204       -0.47899456136081
C            1.57084401748019        0.12666932807422        0.08552144788916
C            3.70418146742105       -1.22536885695812       -1.37728519407121
C            4.97952551724843       -0.96153717035223       -0.93021470250550
C            5.58355913959224        0.29534576874332       -1.12382021481816
C            6.85532056157571        0.54480820638996       -0.69323425492058
C            7.56341006063710       -0.45562755018036       -0.04998151041247
O            8.81138548231742       -0.33229587003392        0.47096011100601
C            9.45034178524689        0.91167706436920        0.38070359133025
C            6.98434433058325       -1.73705258340785        0.09220183609020
O            7.76756294921127       -2.66029309187070        0.70078383016726
C            7.24553279588351       -3.94517520200801        0.90194390687955
C            5.72297427968833       -1.98365728535052       -0.33923875602719
C           -0.34398885116878       -1.05230304874249       -0.62366536738640
C           -4.29427905123926        3.13238616562982        0.60094283192431
C           -4.90086088291562        2.88717259362047        1.97601926635729
C           -3.95878814069388        4.61422942759139        0.44613955766393
H           -4.72289403884446        0.95554308048375       -1.38363631915595
H           -6.81018705220340        0.18493342318208       -2.06659655790679
H           -6.97831234818258       -1.27825355889998       -3.06384070309740
H           -5.48385324343666       -0.31533258509227       -3.14082244252830
H           -5.12323772501849       -3.64027542138461        2.43503755017651
H           -5.30597972588035       -4.93803123686281        1.23122327184849
H           -3.69588238010252       -4.22384713692280        1.51880327925399
H           -3.41672333585096       -2.03791115362829        2.30057772568673
H           -2.60584615366466        0.24746660986778        2.25922222376665
H           -3.24774001180435        2.65543452468354       -1.70298530691888
H           -1.89958141662013        3.46268347807904       -0.89559423650448
H           -1.99493986929282        0.51110572296949       -1.56048253963609
H           -1.30640231535455        1.71568321911104       -2.62100721985105
H           -1.09812330513147        1.69178630794570        1.22897657504898
H            0.43069818989695        2.24527868654991       -0.79396339567004
H            1.80454943750645       -0.73718515130866        0.68027817893761
H            2.02292824299575        1.05251462361167        0.38628894228320
H            3.28125285269689       -0.55946190530976       -2.13206628870450
H            3.37723514243234       -2.24634450618598       -1.34477901303757
H            5.05895325811678        1.08242654458663       -1.63598765662754
H            7.28900141755410        1.51656924220305       -0.85883632404897
H            8.89225215776181        1.69904472858153        0.89861320697990
H            9.60984878575378        1.21048547176217       -0.66139923135951
H           10.41081489398470        0.77873557067958        0.87330260244608
H            8.03276310791244       -4.47117005942970        1.43440126111750
H            6.33403414582906       -3.94615320778964        1.51454316876020
H            7.04409075456839       -4.45278543780700       -0.04823127124292
H            5.26314836687744       -2.94975603504426       -0.26105709258668
H           -0.53046981842520       -1.32383931845761       -1.66702138052942
H           -1.29423399197583       -0.92054987804657       -0.12025189691265
H            0.19169638155168       -1.89276766316187       -0.15258447511392
H           -5.04685223024674        2.87212556808122       -0.15931934163112
H           -4.18258147346926        3.15826812850551        2.73968223768727
H           -5.17543192825763        1.84140760723893        2.09533841285788
H           -5.78712859926820        3.50281470666809        2.10634476550996
H           -3.15936758978819        4.87327744403519        1.13005587454541
H           -3.66415194287469        4.85428812616053       -0.57185139603752
H           -4.83203500074508        5.21616194099998        0.68962923609878
H           -1.10781403602103        3.31604660767024        2.83582294215014
