72
 energy: -99.366417553154 gnorm: 0.001506398282 xtb: 6.6.1 (8d0f1dd)
N           -1.74957243676959        2.91843591356800        2.30939085547914
C           -1.81686061919430        2.17463005927985        1.30875035492711
C           -3.01953656858855        2.04686272151953        0.41617607779674
C           -3.56031265831834        0.62727402989708        0.47706180198985
C           -4.53537759485628        0.20457471658509       -0.42761561297762
C           -5.05764387282440       -1.06725900374356       -0.37037673135106
O           -2.89114753044385       -1.58588227714332       -2.74181617598644
C           -3.94314260113891       -1.98900045725385       -3.17094500463982
C           -4.61957380798778       -1.97736832297803        0.59873500864686
O           -5.18632253493764       -3.20158155638874        0.55960598385016
C           -4.85385654771937       -4.14803663795531        1.55098402541893
C           -3.65325743173691       -1.56300815135772        1.51174007384992
C           -3.14199097659816       -0.27648898266044        1.44570309376336
C           -2.51628143456907        2.36135206460297       -1.01759816298517
C           -1.67644349670472        1.24292229862150       -1.65974441124445
C           -0.32188172833833        1.11804577002391       -1.08569161998002
N            0.27717709542722       -0.01185236566805       -0.76665760383490
C            1.65956952112145       -0.01297657081462       -0.34882410184498
C            2.60428251549570       -0.44047214934554       -1.48892580703207
C            4.02926733201973       -0.22494239527952       -1.06186043739713
C            4.64787620595692        0.99608190875363       -1.27902259574018
C            5.94468783847962        1.22265653487834       -0.84613901497753
C            6.64969363891215        0.23042504361224       -0.17956437949516
O            7.90562176374999        0.34056247974174        0.28905614087954
C            8.60644796976348        1.54876621795375        0.10148209637456
C            6.02395642004105       -1.02760779288590        0.04634066846228
O            6.78041384892576       -1.93399569637556        0.69481671005733
C            6.25968517171659       -3.21812675514483        0.94307154440524
C            4.72520377887495       -1.22983850686666       -0.39493084988930
C           -0.39887841660100       -1.28584370242853       -0.83066470465550
C           -4.17617100566281        3.01820838228425        0.79804220448200
C           -4.72630858492630        2.71049283197606        2.18871056846670
C           -3.78168275848303        4.49001469180144        0.71365416581016
H           -4.90108419596381        0.87996850830990       -1.18503067137058
H           -5.82301409693289       -1.38490303878379       -1.05873161955397
H           -4.24913381291548       -3.03981595474216       -3.08888008887522
H           -4.66089143207665       -1.32931492593203       -3.67756195034871
H           -5.08891949332082       -3.77719016436145        2.55265821950041
H           -5.46562068346160       -5.02267334091480        1.33858863980494
H           -3.79635030096333       -4.42553517138577        1.50106779092338
H           -3.30063663010282       -2.22589802189206        2.28586959984528
H           -2.41639530057164        0.02637641883096        2.18687378674792
H           -3.38037556668998        2.54035226782958       -1.65596444905001
H           -1.92971265790876        3.28093853088678       -0.98960094613538
H           -2.21951549717570        0.30046831425917       -1.63158541323278
H           -1.54982282808053        1.51494873718505       -2.71549116489911
H           -0.96775920735767        1.56930169856956        0.93816881090912
H            0.27734698000255        2.01670736177249       -1.02460501384234
H            1.77847785209835       -0.69275253444715        0.49880287436390
H            1.94038996653312        0.99132002668812       -0.02314935330426
H            2.38580765432567        0.16538366061706       -2.36983469703092
H            2.43416364805461       -1.48767886599736       -1.73992304517136
H            4.12329377145964        1.78188497174769       -1.80112288465071
H            6.40102304759176        2.18010621878629       -1.03618418788289
H            8.10429924938239        2.38402948418481        0.59915499647214
H            8.73230539267319        1.77793351488195       -0.96083088700651
H            9.58318772315944        1.39312565385949        0.55530791789233
H            7.05177963763510       -3.76006171418472        1.45604107432821
H            5.37585068303767       -3.17516709541578        1.58759041272434
H            6.01046689511703       -3.73677432702229        0.01224159962239
H            4.24383792611905       -2.18159052804685       -0.23341542160951
H           -0.78136823227323       -1.48406120131114       -1.83172029856083
H           -1.24734193331157       -1.29949939502990       -0.14131973530000
H            0.29301270987626       -2.07555091834132       -0.55253393803910
H           -4.97889974182646        2.83980178113305        0.07350524274522
H           -3.96878416654803        2.90499530069284        2.94143059557568
H           -5.04429531986274        1.67348966701653        2.26500182628341
H           -5.58459626942031        3.34603813179635        2.38964793334261
H           -2.95514408317741        4.69932605967844        1.38583618062922
H           -3.50649185372735        4.78000391126954       -0.29686341991137
H           -4.62762353783677        5.10191047022379        1.01572145480369
H           -0.87259119241208        2.95717168930349        2.81916091126940
