25
 energy: -42.012467342179 gnorm: 0.002127396388 xtb: 6.6.1 (8d0f1dd)
C            3.34273980046000        1.12314895677761       -0.05192430909879
N            2.37896392824347        0.05226177932639       -0.02491160287692
C            2.67569675664353       -1.24221949011587       -0.05450262242005
N            1.55983391197150       -1.97169398424388        0.00097674846121
C            0.45095624681295       -1.10399182605458        0.06210747049517
C            1.02680753491825        0.19821237819595        0.05540812465061
C            0.28374914988496        1.46160198961058        0.09379256631245
O            0.80350649924559        2.56786030897025       -0.03331646771045
N           -1.01116626472237        1.26170335193031        0.33263437762264
C           -2.03232176842552        2.18783412225878        0.27098423460625
C           -4.23093575925412        0.36972959817350       -0.88880615751260
O           -4.28795897604591       -0.75326161231682       -0.84693677110010
N           -0.79600893791375       -1.38278476447996        0.09786611873681
C           -1.35173304726212       -2.68250531896069        0.12717033857753
H            3.90451363023849        1.14710400880619        0.88260258126943
H            4.03749683596556        0.98193150922813       -0.87878988209430
H            2.81214143627159        2.06910852429360       -0.17109403397832
H            3.67219730722119       -1.64051379830118       -0.10985994568999
H           -1.77348057095104        3.09235904199993       -0.29631319102042
H           -2.90362888151035        1.69547905794692       -0.21737418127217
H           -2.36964687598231        2.45572244487237        1.28113113743357
H           -1.10827196253975       -3.19898618190549        1.06271444443828
H           -1.00079678800069       -3.30590667355054       -0.70363276099479
H           -2.43416777983579       -2.58431941406751        0.06212026565702
H            1.51194608866745       -2.97963546679506       -0.02087486459189
