  25
        -42.17797196
 C          3.3152767844        0.6492236863        0.0080412881
 N          2.2159941458       -0.2774881826        0.0288646582
 C          2.2721337025       -1.5926579901        0.2673475729
 N          1.0227638672       -2.1136955212        0.2132602014
 C          0.1574214673       -1.0898010476       -0.0730177599
 C          0.9150377090        0.0499852509       -0.1939291819
 C          0.3045468468        1.3948450333       -0.5309207485
 O          0.9240490460        2.4332150107       -0.1235990781
 N         -1.1310783763        1.2680815740        0.0645186464
 C         -1.6561077110        2.3684394965        0.5540452171
 C         -1.9071007919        0.0858922836        0.0080844255
 O         -3.1053048962        0.1081174291        0.1248024237
 N         -1.2034444264       -1.1070451217       -0.1515332598
 C         -1.9420246979       -2.3520909191       -0.2207539406
 H          3.9594520784        0.4910950901        0.8707392579
 H          3.9032440675        0.5248020640       -0.9032748674
 H          2.9024022133        1.6608412899        0.0347713902
 H          3.1610119225       -2.1530556206        0.4773215468
 H         -1.0292089329        3.2453071406        0.5679203031
 H          0.0778052967        1.3766838248       -1.6298479488
 H         -2.6671129108        2.3606999820        0.9221587191
 H         -1.8770732417       -2.9020301512        0.7205545546
 H         -1.5603246508       -2.9641562092       -1.0377725680
 H         -2.9879704334       -2.1116508362       -0.4070578297
 H          0.7882634109       -3.0839104256        0.3679644827
