72
 energy: -99.379296347816 gnorm: 0.002334553397 xtb: 6.6.1 (8d0f1dd)
N           -2.16101753814459        2.03517751969872        2.36495602118457
C           -1.99179337215916        2.29301011837262        1.03467557613187
C           -2.42223473048422        1.52582952560716        0.01094223891995
C           -3.12987332943242        0.25892805575776        0.21781352254297
C           -4.26193424120653       -0.06448396124318       -0.54043397547121
C           -4.94250405932184       -1.25232828281468       -0.35081305833016
O           -6.06010091083936       -1.62666477573141       -1.00995796761354
C           -6.64575401322656       -0.73457466495723       -1.92733236883885
C           -4.46894225191843       -2.18936356643911        0.60856641307137
O           -5.18863825818702       -3.32563500298009        0.70616909084575
C           -4.81222943002810       -4.29936328654833        1.65058775259136
C           -3.33946994370723       -1.87419287105152        1.34785390248070
C           -2.68404402983195       -0.66575592799357        1.16053572350240
C           -2.16952345747690        1.96497061707084       -1.40443091692226
C           -1.24784896621160        0.97247295629294       -2.15714071152716
C            0.09934141328187        0.96596594795831       -1.55752470500621
N            0.67874163718266       -0.05730586027418       -0.94867390125076
C            2.02637514766013        0.06906652072395       -0.44735521900351
C            3.06416564710644       -0.43475186941435       -1.46941187253854
C            4.45546075039657       -0.20088164952344       -0.95214047213050
C            5.07086363987660        1.02806689325144       -1.12294485547959
C            6.34465425880970        1.25909696161504       -0.62715588620820
C            7.02885991165407        0.26241742579914        0.05292219233438
O            8.26791907102584        0.37335980058104        0.57056597424716
C            8.97597470495034        1.57946748858458        0.39934260876928
C            6.40416720700683       -1.00095067475342        0.23632969539607
O            7.14049853983093       -1.91431198624502        0.90356515044018
C            6.61635231472770       -3.20499787781656        1.10351830185084
C            5.12864272652117       -1.20737224311894       -0.26428898618726
C            0.09140464997207       -1.37616866476092       -0.93930927706447
C           -5.26574903044264        3.44354758571224        0.59359779925597
C           -5.48080981189663        2.63959852991911        1.61940361428491
C           -4.62962274036803        4.78811427489266        0.68385164912418
H           -4.63044533268668        0.64957081574766       -1.25738563004884
H           -6.92368919281612        0.20912034117386       -1.44735944031015
H           -7.54355308480420       -1.23322612351298       -2.28728531827677
H           -5.98097350594968       -0.53331189638641       -2.77398410206994
H           -4.83808695922423       -3.90232926219543        2.67006184705301
H           -5.54714105197597       -5.09676732143082        1.55587386008052
H           -3.81541308732364       -4.69999258854278        1.43917737126458
H           -2.95925280223466       -2.56757360659480        2.08083296443247
H           -1.79736687947748       -0.45461138643879        1.73925094610543
H           -3.10808521591354        2.03160585645323       -1.95526817355588
H           -1.70987421872504        2.95359079530910       -1.40877739238134
H           -1.70507731905371       -0.01481147205126       -2.15545142909937
H           -1.17070676269257        1.31779473429985       -3.19286445751768
H           -1.44127529828357        3.19993602498754        0.82234518209115
H            0.63886127176389        1.90013715358886       -1.54119033441783
H            2.11763895788903       -0.50168450306177        0.47965425853724
H            2.23014836647915        1.11759593307592       -0.22251402681408
H            2.91989191731756        0.10828997940947       -2.40548962736996
H            2.90604551515258       -1.49702536523957       -1.65875260348490
H            4.56399537733742        1.81619062326787       -1.65887036701343
H            6.79979240194736        2.22358890026011       -0.78143015104864
H            8.47327670786393        2.41363071637690        0.89917937057578
H            9.11316343859456        1.81646948706866       -0.66020591242130
H            9.94811150234957        1.41580629959925        0.86105407506670
H            7.38565493585735       -3.75191631297576        1.64484759522790
H            5.70167435210226       -3.17896845021959        1.70445159325330
H            6.41604198188895       -3.70851667622571        0.15261892019409
H            4.64821319098498       -2.16479889077534       -0.13684685726566
H            0.02934208733878       -1.78708233744463       -1.95041293532256
H           -0.91250309557591       -1.34459244185103       -0.50958387153844
H            0.70499136827027       -2.03789620211790       -0.33384626591292
H           -5.56759962450707        3.14527163307784       -0.40198240381136
H           -2.87854065726235        1.36660363349096        2.60395148609673
H           -5.95409456287420        1.67875146592587        1.50912283865479
H           -5.20829479631310        2.92336995150617        2.62298646003429
H           -4.36498548238732        5.03104922504406        1.70971577401875
H           -3.73356109228328        4.82521175283613        0.06465593787424
H           -5.31538801696745        5.54803394349844        0.31103313430370
H           -2.07575124171370        2.81763803757127        2.99366947354783
