25
 energy: 63.507170203749 xtb: 6.6.1 (8d0f1dd)
C            3.18914376377527        1.15405247334999        0.16106718819002
N            2.25087508527146        0.09616379606967        0.06290212063883
C            2.58145631010365       -1.25980232399543        0.07130333967047
N            1.40807959257233       -1.96679705585574       -0.02594449393014
C            0.39146854239748       -1.07597969810581       -0.03744274777275
C            0.85190318824563        0.26224907754425        0.00292191439595
C           -0.00288393578918        1.46099810878427       -0.04892083242455
O            0.08424425215691        2.75268098520601       -0.05792577454555
N           -1.35572858594935        1.02900756671883       -0.12144198929033
C           -2.18885014956057        2.27695412761898       -0.06065274401812
C           -1.85221189302745       -0.27837835705648       -0.06750845213328
O           -3.03560819538338       -0.53892682291212       -0.00698605865764
N           -0.93972112786757       -1.37188550830404       -0.07050620331073
C           -1.40755083361465       -2.74771904764320       -0.11051775459673
H            3.52019874888187        1.29844253664409        1.19726203629337
H            4.06492216185170        0.96509119993241       -0.47005248702610
H            2.66496826615364        2.03631934328870       -0.19415130005217
H            3.55698075685330       -1.68413291345031       -0.00640691006245
H           -1.95548810612385        3.67066506905794       -0.68740262393408
H           -3.18155227659072        1.94292472673455       -0.29924390935256
H           -2.02134413961954        2.80876262051949        0.85933600483592
H           -1.04834526742993       -3.33381579941669        0.74247278003333
H           -1.08387892829789       -3.24620692652446       -1.03057874192981
H           -2.49656883681336       -2.74345476204281       -0.08221057664635
H            1.38026105524965       -2.97485823030443       -0.07792055113294
