25
 energy: 137.354266152509 xtb: 6.6.1 (8d0f1dd)
C            3.16281697986931        1.11596957017356        0.18298770915746
N            2.26467491547574       -0.00247995511673        0.06017989878809
C            2.58987159664668       -1.31073580959683        0.02707263087244
N            1.46429834240989       -2.04700582671836       -0.03851117839412
C            0.39981260059396       -1.20532842745762       -0.01890747223623
C            0.87493510307994        0.12540796392287        0.05001577428380
C            0.09352692765266        1.28448334192877        0.08019882386007
O           -0.82605033026413        3.88346866894966       -0.16823816627499
N           -1.28027295890291        0.90699672445566        0.05869724635179
C           -2.15202520003536        1.88143324118366        0.24344127621231
C           -1.82205455232910       -0.43728670822712       -0.01895871828651
O           -3.01789954786956       -0.63678747948723       -0.04023095402864
N           -0.92364760547017       -1.48761696708226       -0.05673264149638
C           -1.38642060643472       -2.84956706915645       -0.13169583557193
H            3.42877885455838        1.30427367238448        1.22945563770044
H            4.07418774343331        0.92597205898026       -0.37678271124365
H            2.65131052483049        2.00795167235596       -0.18318726868786
H            3.58642732511439       -1.70711598706120        0.00511804624360
H           -1.43355621464781        4.68521439145637       -0.39649160236797
H           -3.18938455913275        1.74753228821220        0.16575599122063
H           -1.67415671846874        2.89445626848138        0.15906250332788
H           -0.98832523782091       -3.43286760020881        0.70087058139637
H           -1.07726996571218       -3.32217658200655       -1.06838420035483
H           -2.47045680726472       -2.85773787103904       -0.07839382992827
H            1.44440875510129       -3.05368171530538       -0.07744206817909
