25
 energy: 115.304790825458 xtb: 6.6.1 (8d0f1dd)
C            3.17919202558567        1.14169916828788        0.17059418655674
N            2.25252562737252        0.07152785542335        0.05856561368865
C            2.58617611386824       -1.27210002783456        0.05326911822206
N            1.42063707296919       -1.97859825456958       -0.01922749109965
C            0.39138607884418       -1.08933408369815       -0.02955487021905
C            0.85886345379801        0.26319675019868        0.01967799000271
C           -0.00738484399902        1.47867126138793       -0.00614355249488
O           -0.02635393207876        2.79886852623140       -0.03392112501700
N           -1.35805866960446        0.96819069105396       -0.04650776494696
C           -2.21433896148992        2.04437344224018        0.08893007659376
C           -1.84245093116333       -0.34630820731540       -0.05851119838975
O           -3.03294331927743       -0.58175512927645       -0.03096616384860
N           -0.93133505355032       -1.40629153202147       -0.08385375910437
C           -1.38951902553917       -2.78319761805969       -0.11849953233205
H            3.46787195600915        1.30771045896244        1.21231181456493
H            4.07362558464167        0.94705493284899       -0.42665451839387
H            2.66517009347465        2.01424717709859       -0.22165151336046
H            3.56558806221828       -1.69793983437427        0.01179170659472
H           -2.00680293342530        4.23423087594844       -0.67304759540928
H           -3.23547674607120        1.89458615734490       -0.14218645422177
H           -1.82331852243561        2.85833057934314        0.66913986025506
H           -1.01772838501793       -3.36847385146459        0.72763390544066
H           -1.07202370440181       -3.27076186783393       -1.04499514994407
H           -2.47939489911077       -2.78497568377493       -0.07799416726797
H            1.37377911644972       -2.99014650700840       -0.06315864596030
