25
 energy: 130.154736067683 xtb: 6.6.1 (8d0f1dd)
C            3.15319376380101        1.07407462256918        0.15809038914605
N            2.27816395914744       -0.05927301147722        0.07129470288697
C            2.61792757261952       -1.35483315200152        0.01375758962873
N            1.50109855483639       -2.11801930139280       -0.04405673894497
C            0.42410420860779       -1.29379974049172       -0.01662292137074
C            0.89084988713911        0.02981643817487        0.05854129808346
C            0.08567913219119        1.15735929796664        0.06984822703165
O           -0.89587084440786        4.35674282330256       -0.03798153962794
N           -1.25911246074464        0.84002288084151        0.02863291139252
C           -2.12913582327248        1.84361710299421        0.02655024505796
C           -1.80513848950349       -0.48985425685540       -0.01256513983999
O           -2.99993463552663       -0.68839380340878       -0.02053257944945
N           -0.90777519452144       -1.55219040361292       -0.04905100613920
C           -1.40561659764121       -2.91068117897642       -0.13195245321801
H            3.46902748624450        1.23888908226299        1.19067750795782
H            4.03547288326170        0.92477881583158       -0.46393957126796
H            2.59679593032532        1.95026134146386       -0.17482525480294
H            3.61616963575962       -1.73619037780495        0.00750127729641
H           -1.33404266142325        5.16092507571619       -0.31148760083772
H           -3.18231137971961        1.61599615919671       -0.00502003791126
H           -1.70660636173181        2.86890591538722        0.02165121935593
H           -1.04066071613562       -3.50080077165980        0.71062637645282
H           -1.09639982088451       -3.37290319866588       -1.07173063992623
H           -2.49292645384863       -2.86950112447616       -0.09588817017610
H            1.49926273040009       -3.12592044613962       -0.09448417858326
