25
 energy: 134.883995699900 xtb: 6.6.1 (8d0f1dd)
C            3.16103365819312        1.06891354081654        0.15995495292004
N            2.27943143992120       -0.05675517886243        0.06665399505820
C            2.62263487830766       -1.36494051554903        0.01259006864625
N            1.49024455884806       -2.11599552669161       -0.03975562347803
C            0.42775665844826       -1.28104999652649       -0.01859870066109
C            0.88919357167088        0.03896299082899        0.05039237269879
C            0.11859595699432        1.19566500133898        0.08558636557981
O           -0.94591947369168        4.12870180878813       -0.07314624478101
N           -1.24525905224674        0.86291984227594        0.04843177247989
C           -2.14025090003872        1.83930536194641        0.12445431883412
C           -1.78543596150706       -0.47138415947676       -0.01983098910930
O           -2.98040731835995       -0.67938743174558       -0.03010285229183
N           -0.90461307847450       -1.54350186895624       -0.04780223983449
C           -1.40505805223740       -2.89757619511293       -0.13150798605721
H            3.46351132738563        1.23330230324053        1.19706817217890
H            4.05050573117014        0.91307088352197       -0.45448609587891
H            2.61243419441612        1.94860128660136       -0.17790763696939
H            3.61427307461619       -1.76327414596411        0.01089136307613
H           -1.25718038874454        5.01629555034285       -0.29187604427362
H           -3.20627096319888        1.59392385499270       -0.00570119707917
H           -1.63640695543206        3.06976781423577       -0.00571872986869
H           -1.03453163227214       -3.48427977044307        0.71021104638536
H           -1.10576269138333       -3.36596521674911       -1.07356877777782
H           -2.49051295569292       -2.85295132292521       -0.08897710590575
H            1.47210071685634       -3.12124720513604       -0.09402414227963
