25
 energy: -5.280496684838 xtb: 6.6.1 (8d0f1dd)
C            3.23864758871426        1.17420535727976        0.09701566249123
N            2.30188459875840        0.10525207883590        0.03759188089021
C            2.60242541205250       -1.24206278065861        0.03180239938605
N            1.41860420111705       -1.93924794822489       -0.00359129410254
C            0.40018258481595       -1.05652012277810       -0.01107341281654
C            0.91386962823539        0.23914482481702        0.01606375064552
C            0.09836988968229        1.40443643478334       -0.00286105512026
O            0.42724237721505        2.59696796519403       -0.00830287918044
N           -1.27834970312750        1.04747411199686       -0.02738559028005
C           -2.19286651556955        2.18385048430261       -0.06024030474327
C           -1.82370536674702       -0.20325197407131       -0.03841391352227
O           -3.02142904263452       -0.39823206100787       -0.06237596984903
N           -0.93850029606040       -1.30608482850344       -0.03621201078439
C           -1.46434853386516       -2.65297570096151       -0.06500831028124
H            3.70048801175320        1.22768908811255        1.08719948565347
H            4.01946346577217        1.03084581068060       -0.65275222271090
H            2.69191089174725        2.09425439704986       -0.09825768481773
H            3.57845096958759       -1.65968192545712        0.03952690631229
H           -1.64029599559042        3.13721314802149       -0.13067941932716
H           -2.87190981524266        2.06383440727394       -0.90099909920815
H           -2.79235820991067        2.18057586458255        0.84336109889156
H           -1.15676957525523       -3.21161460983500        0.82260370507688
H           -1.13719593858960       -3.18238289277178       -0.96359705311057
H           -2.55052208417304       -2.57488767412055       -0.07592502580358
H            1.36332610658016       -2.94482433196236       -0.02209772989325
