25
 energy: -42.443250668194 xtb: 6.6.1 (8d0f1dd)
C            3.32017487715644        1.11490262037078        0.06956115089651
N            2.37241855941119        0.03981089052027        0.03601644076501
C            2.65156071896204       -1.27866115493281        0.00766631751917
N            1.49603748582356       -1.97964890629861       -0.00006356610299
C            0.45730108340802       -1.10881166207301        0.03470330573175
C            0.98442094028512        0.18751794057520        0.06346565707538
C            0.18460443636469        1.34550535826051        0.08931418109189
O            0.57091337940095        2.51684581895683        0.09568870167759
N           -1.21454281694623        1.02995472475191        0.11630473854925
C           -2.08771463961188        2.05217310819166        0.19207097866329
C           -1.75838158982428       -0.26440699803646        0.07421836451877
O           -2.95461709599120       -0.46461817900664        0.07948536925703
N           -0.87205189576873       -1.34554750714923        0.03575508261737
C           -1.39702488090269       -2.69340335871867       -0.00891291320802
H            3.79648447185596        1.17687679889486        1.05087553833032
H            4.08989477729181        0.96558750043899       -0.68844679208842
H            2.78165861061688        2.04359346274502       -0.11920806247603
H            3.63111757234567       -1.70434908483980       -0.02008072145259
H           -1.67573690465776        3.04121588685663        0.20756040692417
H           -4.12855088496796        3.53887757580573       -1.50458187881965
H           -3.13600999563157        1.84945842745776        0.11455532630674
H           -1.09512754973682       -3.25200840852463        0.87913346994155
H           -1.05371342926372       -3.20868954132923       -0.90794805247674
H           -2.48328534113022       -2.61768665090923       -0.03172788782801
H            1.42904992254154       -2.98476081981835       -0.02687883876752
