25
 energy: -1.975294055681 xtb: 6.6.1 (8d0f1dd)
C            3.37219384280870        1.12904492660806        0.09513065558598
N            2.33841824666416        0.13114726789664        0.01775973019034
C            2.58413672554170       -1.24815579103497        0.01353220935429
N            1.36545013069816       -1.89083804491625       -0.01483808712879
C            0.38336954176377       -0.97327686140028       -0.02021552939080
C            0.92065134577819        0.30793063225373        0.00291771674515
C            0.02518906484457        1.42781300440965        0.01185727676913
O            0.36399017421221        2.61051797608296        0.02150158912833
N           -1.40013377577262        1.05554414327667       -0.03349456100951
C           -2.37002394292471        2.13426755323264       -0.04627519328254
C           -1.92140178340914       -0.19408079184582       -0.07567178117232
O           -3.10001725962327       -0.46073020456467       -0.09775923491563
N           -0.95645245167120       -1.23216844899113       -0.04270998853114
C           -1.40544745437263       -2.60325963979153       -0.05159391333332
H            3.84377737946317        1.18799722174871        1.09627636694569
H            4.20917210642703        0.88105094678502       -0.58728229172624
H            2.95090064071700        2.09612571108431       -0.16413779023494
H            3.54135112090970       -1.73555265083253        0.02659192575981
H           -1.77746591730754        3.04574618775144       -0.01433034569517
H           -2.98703942716481        2.10288481933334       -0.94761066483785
H           -3.05189590618782        2.07357963026184        0.80766353707998
H           -1.07763696359654       -3.14412292047524        0.83908460254619
H           -1.06004124546100       -3.12452359270084       -0.94753558040451
H           -2.48464497316216       -2.56159246497302       -0.04863361183192
H            1.26085174508389       -2.89597812237858       -0.02288821596935
