25
 energy: 19.481808833364 xtb: 6.6.1 (8d0f1dd)
C            3.54463332488700        1.04358396311217        0.10387194516937
N            2.37871673809083        0.20114246360210       -0.03305027931262
C            2.54488719965562       -1.18047029005350       -0.07821322301882
N            1.31480161508539       -1.77406011355766       -0.08805311731775
C            0.35438423871382       -0.83387283867235       -0.04814008655220
C            0.91404906779942        0.44665089079607       -0.00503198646494
C           -0.04492797486025        1.52405837101353        0.06571780170528
O            0.18597278426484        2.71718870252685        0.08708619814244
N           -1.60200949424483        1.11423051650164       -0.05134697067180
C           -2.60074370672808        2.15436154420474       -0.04585721832297
C           -2.06841814762556       -0.14723360800603       -0.10197701314890
O           -3.19527845121767       -0.55763212662336       -0.20101782223383
N           -0.98010953717887       -1.12525123697741       -0.05416055936359
C           -1.30197366646090       -2.54853119838863       -0.03255481795097
H            3.96340152890027        1.11581807898237        1.13789957322805
H            4.40844916700202        0.56026374510012       -0.43798999298006
H            3.33814343005569        2.03850128718782       -0.28987947234128
H            3.45093330616428       -1.76396940553205       -0.06877665463175
H           -1.99246947922862        3.06314821589307        0.00578527187527
H           -3.22985425640326        2.11358204796347       -0.94661338580427
H           -3.30914645325603        2.03968576689528        0.79092077616618
H           -0.93014558415362       -3.06076224246725        0.85995367458557
H           -0.92397177411882       -3.06080995590657       -0.92369272601642
H           -2.37133226376816       -2.63728329606176       -0.00123276108214
H            1.14545306728181       -2.77681387532026       -0.07425544264685
