25
 energy: -42.137298274877 gnorm: 0.001799562661 xtb: 6.6.1 (8d0f1dd)
C            3.42126561374312        1.74640202792034        0.04572701773620
N            2.64417847124022        0.53568565878649        0.09554495575661
C            3.10406456972394       -0.70559879535570        0.17837207657964
N            2.08501329016567       -1.58172512291237        0.19051986500637
C            0.91079611209958       -0.87647033707845        0.11070662843758
C            1.27928746375539        0.47449134002163        0.05157374390379
C            0.25847078486123        1.49753591688481       -0.02582424068250
O            0.46476746721361        2.69400836091882       -0.07058894727474
N           -1.00885398508981        0.94163311522067       -0.04133312101378
C           -2.14235633482988        1.84072431030510       -0.11719186919094
C           -1.32228829408137       -0.43829040730672        0.01132597928150
O           -2.48772936704254       -0.77090530399480       -0.01782627678493
N           -0.31284624687703       -1.34073201442720        0.09148077158390
C           -3.39608144390240       -3.74847214402961       -0.15839849960094
H            4.08868453257569        1.80543469441721        0.90533339595605
H            4.01914697876939        1.77554786555666       -0.86594601439330
H            2.74001511474800        2.59734778326615        0.05332591884402
H            4.14215932072897       -0.97434730760203        0.22982815795538
H           -1.76737923477631        2.86082351173884       -0.17662024440693
H           -2.74390563145227        1.60315463210267       -0.99577471879651
H           -2.77204913695928        1.71932023352716        0.76571385747472
H           -3.41943437489760       -4.36760073846769        0.71836015637135
H           -3.61910805339781       -4.18365866401746       -1.11506147589320
H           -3.16136554536245       -2.69812924216273       -0.08040399610182
H            2.15597944315855       -2.58794083170874        0.24832849715460
