72
 energy: -99.373896888579 gnorm: 0.004464316457 xtb: 6.6.1 (8d0f1dd)
N           -2.67637625587050        2.57084220506990        2.76462387610419
C           -2.30985703874094        2.46228808843808        1.60598277250132
C           -3.17450105467135        2.05911621568712        0.39716033081930
C           -3.61156758188071        0.60784586042550        0.50058055510519
C           -4.44238730948233        0.08785341497230       -0.49544506599815
C           -4.86304711627036       -1.23238552030250       -0.47474010252370
O           -5.67506627992935       -1.80664807265553       -1.38130128018432
C           -6.24407910792519       -1.02266471078725       -2.40403745235379
C           -4.42310410973121       -2.09106167479360        0.57303973948626
O           -4.86097922869006       -3.35944539296845        0.50359244258380
C           -4.50125258521344       -4.27055408707957        1.51671215739586
C           -3.60231958163649       -1.56531418708396        1.56007851254640
C           -3.20774503861671       -0.23607148237737        1.52609681395310
C           -2.38650095342601        2.27709140104002       -0.91511361282218
C           -1.45511898248330        1.13212605168539       -1.32960913387413
C           -0.31335010890626        0.86846939260954       -0.34361819290437
N            0.62062638086937       -0.11056069033461       -0.85013964364895
C            1.98214205252605       -0.01914710941232       -0.37804185481894
C            2.98447923261964       -0.36573247740063       -1.49670462672519
C            4.39199582766897       -0.15782600485786       -1.02257050277667
C            5.03094419552341        1.06246780686636       -1.20742752831703
C            6.32397202182702        1.26660979996025       -0.75625563633176
C            7.01242017189898        0.25249527795492       -0.10072763714625
O            8.26471338507020        0.33302177049683        0.37399475043953
C            8.99799660925640        1.52457203039201        0.20267720006498
C            6.36447186917786       -1.00201687799430        0.10127817980322
O            7.10128407701114       -1.92629395541604        0.73979748986049
C            6.56494245831220       -3.20828855776593        0.96886940362009
C            5.06787348705667       -1.17938551437361       -0.36103751161253
C            0.08939752265418       -1.44816472556744       -0.93327048431579
C           -4.43433586677623        2.97366428550847        0.46661669739811
C           -5.21107425587528        2.67861815628545        1.74033144726713
C           -4.08304376505017        4.45820941929076        0.38518939220743
H           -4.76738295367992        0.72733185748388       -1.29981373883943
H           -6.83379304287371       -0.19724639427091       -1.99416667066294
H           -6.89964250295099       -1.69408014419891       -2.95529527534311
H           -5.48033774153341       -0.62801066540595       -3.08148060238016
H           -4.86353567572502       -3.94398000264450        2.49572190410618
H           -4.98076123423185       -5.20997631201646        1.24874611162920
H           -3.41726547483444       -4.41531049834717        1.55765216423030
H           -3.26719911187834       -2.18527959725042        2.37556516199430
H           -2.59232108108170        0.13617054462494        2.32941781462192
H           -3.10290538043528        2.42012276036729       -1.72670789855275
H           -1.80651944218186        3.19842567948426       -0.83469319273060
H           -2.04137526067579        0.22252248393870       -1.45828603907895
H           -1.01408483213125        1.38662751906424       -2.29540573482388
H           -0.73340245933281        0.52994485866361        0.61776685150694
H            0.23463594783414        1.80015566029249       -0.18140003818656
H            2.15612570699811       -0.68410128148593        0.48087022648362
H            2.17878193448961        1.00411306087650       -0.05256514093776
H            2.77719570190598        0.27821289980473       -2.35159406731721
H            2.84705539807657       -1.40154729573153       -1.80736002019516
H            4.51933729867146        1.86262185986775       -1.71972833485713
H            6.79488930259586        2.22160961750002       -0.92297277574823
H            8.51557679960006        2.36723867011253        0.70668317979779
H            9.13378572020014        1.76082652388785       -0.85677364807747
H            9.96836874255027        1.33828280288164        0.65889416271296
H            7.35088785254080       -3.76781407558723        1.47251693382025
H            5.68221398289445       -3.16313086634937        1.61417123397651
H            6.30829023729834       -3.70856173332073        0.03028550877565
H            4.57226214166430       -2.12697190034639       -0.21896349856238
H           -0.64381460689924       -1.50870545283686       -1.73675785935377
H           -0.40058901522299       -1.74897196622206        0.00321312721645
H            0.88764852844477       -2.15212891617328       -1.15004610235197
H           -5.06454534234725        2.72696614545900       -0.39522509728698
H           -4.49087946414692        2.68184012952453        2.58171917448705
H           -5.68265067991564        1.69936510327349        1.71002851482005
H           -5.96182467828350        3.43904185431132        1.93245209499683
H           -3.46225322673686        4.75324515644877        1.22772314354891
H           -3.56230549102641        4.69847832354215       -0.53800062802792
H           -4.99506122060675        5.04900503596716        0.41604261036188
H           -1.27764285032762        2.68407794180042        1.31244979203185
