72
 energy: -99.388096457773 gnorm: 0.005278070209 xtb: 6.6.1 (8d0f1dd)
N           -1.94419642745445        3.03458274143087        2.32407276533947
C           -2.55629341046094        2.20608273575987        1.70012416758820
C           -3.29205381288794        1.91146239162484        0.50238785031634
C           -3.86981474011484        0.50342267247581        0.56161029239853
C           -4.67100360032102        0.01996616571071       -0.47193767261354
C           -5.15604376254225       -1.27770472506500       -0.45233692953760
O           -5.93166271935199       -1.83397618015685       -1.40414359776965
C           -6.36158164902411       -1.04976253884599       -2.49211578016116
C           -4.82126349746242       -2.13506713667629        0.63168365201159
O           -5.30029335691307       -3.39054724865646        0.54490806559763
C           -4.98389554872944       -4.31474071486171        1.56020557227618
C           -4.04362434500556       -1.63554665622185        1.66470872124995
C           -3.57580387987169       -0.33026538966835        1.62752224293207
C           -2.34073410789197        2.05482784474456       -0.72855099206304
C           -1.46328715597949        0.84228738979526       -1.03488392814625
C           -0.19516647348953        0.74192924544234       -0.17949807429213
N            0.80060284408247       -0.07366931431672       -0.85305924915708
C            2.17512256334789        0.10799834464986       -0.43155918193316
C            3.16201275031825       -0.13084049264128       -1.59196696058288
C            4.58029747605287        0.02325580616865       -1.12358570190919
C            5.27856812123567        1.20705603042293       -1.31140879003499
C            6.58084283796826        1.34689398651074       -0.85691099301274
C            7.21548648508291        0.30421340961581       -0.19563950495303
O            8.47015232604924        0.32832344524852        0.29263775405452
C            9.25325580385352        1.48736643813484        0.12487417879164
C            6.51047857680758       -0.91652130846123        0.00026020120879
O            7.20101210308940       -1.87858084513547        0.64458248623648
C            6.60180392150504       -3.13460702621866        0.85559917591182
C            5.21052545370002       -1.03235252509480       -0.46723362125619
C            0.41841943201605       -1.45996273032271       -0.98945438363604
C           -4.46216412596391        2.95129640302256        0.39156927361028
C           -5.43683291735893        2.81181896356355        1.55819586163420
C           -3.98738907973797        4.39492216138659        0.27218510386172
H           -4.90966207130605        0.65902594053919       -1.30600725218464
H           -6.95141810275346       -0.19033710623245       -2.15894842462441
H           -6.98934272139398       -1.70509692684786       -3.09272482772242
H           -5.51793508426514       -0.70443851157466       -3.09849864368775
H           -5.39235946699073       -4.00490264036440        2.52675263053217
H           -5.44649973894963       -5.25177393533675        1.25707615978792
H           -3.90206066869900       -4.45641490989716        1.64843803653670
H           -3.79221062570793       -2.25719586590542        2.50828623784483
H           -2.97122391772611        0.04065776538747        2.44415768220188
H           -2.98048894312057        2.23450896404957       -1.59350075105458
H           -1.71261460852945        2.93378311880537       -0.58620170900443
H           -2.05453103824505       -0.06678789809277       -0.92407944414014
H           -1.14524587540661        0.91274610620494       -2.07688155706199
H           -0.45903810932534        0.34305989747332        0.81911204094042
H            0.22863680427535        1.73907876774105       -0.04052545413450
H            2.43213728555041       -0.56503623795890        0.40164780736287
H            2.30567149822286        1.13533562580603       -0.08479787591317
H            2.94469875272838        0.58388531327891       -2.38612048006926
H            3.02564453101289       -1.13564106291693       -1.99273107441056
H            4.80987561208336        2.03077538187172       -1.82743516057592
H            7.09877919249121        2.27690381912474       -1.02543795337527
H            8.80172100554287        2.35180347814830        0.62146690320169
H            9.40997799958742        1.71461952903881       -0.93387387460176
H           10.21071612926243        1.26296391378271        0.59155290734062
H            7.35034068964364       -3.73245249593309        1.37238172090716
H            5.70832383833298       -3.05295803110661        1.48289836297391
H            6.34175919160923       -3.61890427455012       -0.09074297164912
H            4.67198807113564       -1.95762024098033       -0.33353640766821
H           -0.49709613686251       -1.53697650529433       -1.57059026389985
H            0.25788678959373       -1.94152885443361       -0.01398903148674
H            1.19670388406917       -2.00355411608876       -1.51849584366791
H           -4.99603877346336        2.69427989258357       -0.52834126449276
H           -4.96580920072484        3.09628793587371        2.49634060974792
H           -5.80218427620991        1.79157434435953        1.64694641872708
H           -6.29069673377700        3.46555616190210        1.39783015465402
H           -3.41992973894732        4.69865704697870        1.14811799967029
H           -3.37580627989571        4.54944803211140       -0.61198071102486
H           -4.85556571570451        5.04476473729362        0.19215633219080
H           -1.52606393512311        3.00248202034352        3.23870181045827
