  25
        -42.13784929
 C          4.8037214363        0.2849785732       -0.0102250524
 N          1.8459263523        0.0826321913        0.0027651537
 C          3.9222198687       -0.9047129654        0.0092106363
 N          2.6514753518       -0.9777019568        0.0130575085
 C         -0.1232438611       -1.2793503976       -0.0024362703
 C          0.5054851924       -0.0661670484       -0.0008660224
 C         -0.2675187069        1.1910606825       -0.0023866517
 O          0.2675420802        2.2753822599       -0.0057190989
 N         -1.6419950693        1.0240743893        0.0015811357
 C         -2.4832004106        2.2146056935        0.0055711889
 C         -2.3108778432       -0.1658010045        0.0006662313
 O         -3.5022111050       -0.2652071000        0.0033591394
 N         -1.4863544754       -1.3725256547       -0.0039924830
 C         -2.1247178377       -2.5220663080       -0.0095924234
 H          5.4206478278        0.2813642762        0.8897858644
 H          5.4906304721        0.2037152139       -0.8533720009
 H          4.2724377988        1.2320786401       -0.0728218741
 H          4.4126912404       -1.8700915497        0.0252586614
 H         -1.8352263544        3.0875222484        0.0185156308
 H         -3.1125203715        2.2248356010       -0.8838179833
 H         -3.1266483755        2.2078508375        0.8847598526
 H          2.2356069904        1.0261027299       -0.0108549698
 H         -1.5758005987       -3.4463547560       -0.0133899691
 H         -3.2021505628       -2.5094208420       -0.0105442979
 H          0.4393629625       -2.2006346046       -0.0025702353
