25
 energy: 0.000000000000 xtb: 6.6.1 (8d0f1dd)
C            3.23720163006194        1.16630919979326        0.08434469647475
N            2.29877817382611        0.07527477071623        0.03981603040599
C            2.58028210190900       -1.21425402444508        0.03006176031096
N            1.43813958087363       -1.93419271955128        0.00098261760884
C            0.39035688448383       -1.05887472636071       -0.00790371836672
C            0.93510056364412        0.21347819449412        0.01709077491437
C            0.09450143893243        1.40504303904423       -0.00410947031874
O            0.49712751527797        2.54126714362870       -0.00342325688240
N           -1.25076640035757        1.06271879480407       -0.03085478223738
C           -2.21907211982101        2.15522099834493       -0.05001256985998
C           -1.81739487048744       -0.20012725993278       -0.04692818574614
O           -2.99983886758376       -0.37846417018721       -0.07008878229737
N           -0.92618586207120       -1.30210215599479       -0.03682761578324
C           -1.46982264913417       -2.64643102187190       -0.06029820460571
H            3.71247264356769        1.21471455160235        1.06488849150277
H            4.00791497605742        1.03430808813993       -0.67357694370751
H            2.69910007168542        2.09770118228144       -0.09130154882931
H            3.56654120610678       -1.63682992603973        0.04233140067262
H           -1.67107961066214        3.09322851271934       -0.02552706933167
H           -2.82428953597071        2.09428624779827       -0.95318082946668
H           -2.87644029173232        2.07745725625962        0.81450067533302
H           -1.17061996399332       -3.19584890659852        0.83242232437030
H           -1.14560257411436       -3.17511610292205       -0.95688275822323
H           -2.55549792440841       -2.55659984320617       -0.07459039797972
H            1.38130855184625       -2.94313852034425       -0.01389874181052
25
 energy: -2.394034378431 xtb: 6.6.1 (8d0f1dd)
C            3.23160169338884        1.17905769415824        0.08832214016513
N            2.29658933179300        0.09162433626936        0.04041148991553
C            2.59711717451379       -1.23606491660136        0.03243394798971
N            1.45156051880517       -1.98673806320024       -0.00310159619868
C            0.40308665627642       -1.08467076046772       -0.00831630152184
C            0.92123173660050        0.20971866571743        0.01650725236054
C            0.09598475065340        1.39609769532546       -0.00514215258937
O            0.49433421015697        2.56236619803056       -0.00387205203833
N           -1.26690639160537        1.06168142860178       -0.03232311109338
C           -2.22818944308539        2.16262104622422       -0.05265339150018
C           -1.82422084812347       -0.19181363857336       -0.04699731028658
O           -3.02168440159117       -0.37041348568015       -0.06953918379550
N           -0.93480172403964       -1.30027976705235       -0.03654855306380
C           -1.48155514956956       -2.63298063057513       -0.05719386980268
H            3.71790275509954        1.22165700772877        1.06680573539755
H            3.99709016691582        1.04664252660195       -0.67801937261321
H            2.69402663900727        2.11093693255281       -0.08066685498095
H            3.57769653653305       -1.64479233427100        0.04746363302652
H           -1.67266391151709        3.09822812255441       -0.02953720316205
H           -2.83703150394550        2.11205047465953       -0.95541542372759
H           -2.88891275579683        2.09752015011567        0.81171505170098
H           -1.16892469425768       -3.17763092399411        0.83482391368250
H           -1.15042993273932       -3.15803950625783       -0.95421473300273
H           -2.56646349735827       -2.53744300282883       -0.06741267175143
H            1.47577675182170       -3.04030664686610       -0.03049548696289
25
 energy: 4.184099770723 xtb: 6.6.1 (8d0f1dd)
C            3.22311002161767        1.18608285462958        0.09277444017816
N            2.28967959120571        0.10155286844276        0.04056034361426
C            2.60698082111736       -1.25098742735492        0.03561954834094
N            1.46505323070975       -2.03817625587478       -0.00765139385748
C            0.41414294201804       -1.11758886646903       -0.01118272139600
C            0.90348329248752        0.19554015104021        0.01553223308791
C            0.09698939315540        1.37486450756432       -0.00568569703571
O            0.48656837860571        2.55600224333021       -0.00364267622770
N           -1.28752847038911        1.06561857396095       -0.03471050055258
C           -2.23778868156155        2.17707607209053       -0.05648574203759
C           -1.82785553157007       -0.17873837249394       -0.04758742254508
O           -3.03112663003537       -0.36246674218050       -0.06850582338461
N           -0.94444640359145       -1.29241291063837       -0.03742722063682
C           -1.49786529312682       -2.61494461393953       -0.05280363914819
H            3.72404300563347        1.22478356287136        1.06641021880009
H            3.98189985874536        1.06402726239613       -0.68450324884543
H            2.68554714141033        2.12085988552757       -0.06285419995447
H            3.58757911697523       -1.64127212957345        0.05536312213047
H           -1.67291014410011        3.10861378472266       -0.03523692154252
H           -2.85071133564405        2.13564427832127       -0.95822501985293
H           -2.90205698246053        2.12452640637355        0.80734066415935
H           -1.17167449488757       -3.15701779086771        0.83686192851643
H           -1.16466230346305       -3.13979252536492       -0.94983102788175
H           -2.58200734994378       -2.51668279572225       -0.05624299643879
H            1.61777149502810       -3.13608341861965       -0.05085235134269
25
 energy: 8.197612550539 xtb: 6.6.1 (8d0f1dd)
C            3.21824461011629        1.18664058957781        0.09501344486088
N            2.28795910152280        0.09973850045198        0.03972776697649
C            2.60801232687952       -1.25511385899790        0.03578822178488
N            1.47116407051696       -2.05472810498830       -0.01042359543880
C            0.41837234858472       -1.13207037677379       -0.01618033901075
C            0.89913890780079        0.18515242395299        0.01357061619713
C            0.09785340812147        1.36529704562964       -0.00602674948510
O            0.48458819443633        2.54528096673265       -0.00245466686602
N           -1.29553590850699        1.07123044407975       -0.03663357808373
C           -2.24142980405951        2.18550840771618       -0.05870353019015
C           -1.82865091152780       -0.17369551496676       -0.04850532163400
O           -3.03075721380221       -0.36409530675435       -0.06775303536743
N           -0.94582646199135       -1.28725688129911       -0.03967289987749
C           -1.50603305104498       -2.60760645706814       -0.05035818236880
H            3.72600117196283        1.22175402221250        1.06521363805345
H            3.97179060977972        1.07660100245197       -0.68924240741838
H            2.67765826617254        2.12284307384398       -0.04893127927889
H            3.59305062470091       -1.63714296475680        0.06063650320587
H           -1.67355736348618        3.11500446800100       -0.03854166108853
H           -2.85596815368931        2.14629375135830       -0.95964645054352
H           -2.90646915334666        2.13707215095116        0.80496991883696
H           -1.17487136777967       -3.14871355071531        0.83792954035868
H           -1.17767582417293       -3.13394397100691       -0.94817123840527
H           -2.59004132295892       -2.50794842736060       -0.04805108337640
H            1.68519756370779       -3.16707283009990       -0.05651973569382
25
 energy: 8.928755910489 xtb: 6.6.1 (8d0f1dd)
C            3.21697182654116        1.18556595984075        0.09569469335114
N            2.28872161042490        0.09642433220681        0.03923787371660
C            2.60590747278602       -1.25550584387187        0.03553617661338
N            1.47125268646884       -2.05583621962858       -0.01113943953558
C            0.41865880208778       -1.13482341593468       -0.01913976916333
C            0.89992472510782        0.18151052514816        0.01200030043013
C            0.09863371446030        1.36373379309065       -0.00643563561063
O            0.48485111191756        2.54087101219199       -0.00137403022788
N           -1.29669220096887        1.07419759298800       -0.03784922597195
C           -2.24191412796282        2.18772738573937       -0.05945927521188
C           -1.82911096877245       -0.17255322396456       -0.04921271527901
O           -3.02958417810216       -0.36620632100099       -0.06744103855846
N           -0.94520979229814       -1.28467557023976       -0.04120170050755
C           -1.50774760132191       -2.60609034447849       -0.04952747703064
H            3.72711845666573        1.21832522432400        1.06417765525173
H            3.96757539414318        1.08194713576807       -0.69171773507456
H            2.67378806981919        2.12159566301871       -0.04257019613400
H            3.59305606133142       -1.63538698158950        0.06359611363661
H           -1.67428396932123        3.11700722828298       -0.03967740177361
H           -2.85685237463840        2.14805210895926       -0.96008474818168
H           -2.90650449741007        2.13932365382753        0.80451837533134
H           -1.17488606578987       -3.14657599682441        0.83817448760675
H           -1.18259763946558       -3.13303652688896       -0.94793652526032
H           -2.59170264489884       -2.50662135957257       -0.04453013771928
H            1.70284079713262       -3.16994120921989       -0.05660472855003
25
 energy: 8.819037987454 xtb: 6.6.1 (8d0f1dd)
C            3.21678872607431        1.18476652541281        0.09581307527447
N            2.28968269446515        0.09424409457890        0.03925512301854
C            2.60387741984598       -1.25543472551611        0.03560666902207
N            1.46974384502461       -2.05439990684880       -0.01106306051734
C            0.41792343237683       -1.13471461879902       -0.02034350225386
C            0.90100466550869        0.18061682439209        0.01107463262984
C            0.09922707925764        1.36388199560683       -0.00666875345944
O            0.48525943117795        2.53978133973935       -0.00056401997394
N           -1.29623304977487        1.07498534465576       -0.03862672434368
C           -2.24150558907630        2.18771767352479       -0.05975040315831
C           -1.82964856764364       -0.17241264338321       -0.04954850207037
O           -3.02926684237603       -0.36686748495149       -0.06726349466009
N           -0.94497422274228       -1.28350896593626       -0.04188937399421
C           -1.50759139173653       -2.60609003991212       -0.04929522754263
H            3.72824939663505        1.21618330645725        1.06329293381226
H            3.96577700914288        1.08393005848582       -0.69310155448625
H            2.67205267240874        2.12022878365909       -0.03997216449175
H            3.59165867100900       -1.63492604051811        0.06553109953670
H           -1.67464498240473        3.11736506693739       -0.04010232420887
H           -2.85675516292806        2.14769754733676       -0.96017963240920
H           -2.90576883536059        2.13901307600656        0.80451278238741
H           -1.17360252159266       -3.14590337332703        0.83814948484092
H           -1.18340162064977       -3.13279417334716       -0.94802574509020
H           -2.59149187356946       -2.50720589213978       -0.04324695945355
H            1.70585428486427       -3.16712516994229       -0.05656046226122
25
 energy: 8.591713503777 xtb: 6.6.1 (8d0f1dd)
C            3.21686383873005        1.18454050668979        0.09567612967405
N            2.29030707276597        0.09339251360410        0.03951851865159
C            2.60280853957901       -1.25566711539030        0.03577304927126
N            1.46835476810177       -2.05363413535285       -0.01068003819672
C            0.41729811557305       -1.13421935595972       -0.02062357244902
C            0.90146411997972        0.18093293177641        0.01057369777246
C            0.09959982150597        1.36413802529734       -0.00668426583878
O            0.48538461374405        2.54022347844619       -0.00002416098769
N           -1.29570260867918        1.07464608394885       -0.03910308392753
C           -2.24103007901220        2.18718577267426       -0.05983961706133
C           -1.83006762453459       -0.17247010810361       -0.04963342358559
O           -3.02954144699587       -0.36659320450700       -0.06707228143561
N           -0.94518214054948       -1.28319509087485       -0.04208088426918
C           -1.50710962494738       -2.60638646061637       -0.04934510643923
H            3.72916791000372        1.21540537425376        1.06262565124743
H            3.96518469445488        1.08441812285861       -0.69388307947198
H            2.67139169981423        2.11951752492521       -0.03925276097869
H            3.59056329755943       -1.63526984281819        0.06682017431793
H           -1.67463177236236        3.11718678206572       -0.04019903857246
H           -2.85657203744666        2.14723324100195       -0.96013356010141
H           -2.90520212637690        2.13841463566136        0.80458676820235
H           -1.17242350720799       -3.14576109852523        0.83799403404157
H           -1.18268803450089       -3.13266999982665       -0.94817424403807
H           -2.59097849550300       -2.50797613894754       -0.04308844755343
H            1.70495567424083       -3.16436384010923       -0.05671656212469
25
 energy: 8.363494618496 xtb: 6.6.1 (8d0f1dd)
C            3.21693424455669        1.18431864110515        0.09553348643476
N            2.29094524465761        0.09252829189643        0.03979973745888
C            2.60173484404943       -1.25592430652630        0.03593129325869
N            1.46694666778644       -2.05288880305483       -0.01028458851187
C            0.41667270212333       -1.13372501870350       -0.02091328876044
C            0.90192549703993        0.18126585763565        0.01005451451656
C            0.09998109338842        1.36439107886178       -0.00669462300979
O            0.48550461949919        2.54068052065799        0.00052993935681
N           -1.29516821791857        1.07429017741163       -0.03959691176320
C           -2.24054674682994        2.18664847179178       -0.05993250257115
C           -1.83049254667840       -0.17253073583632       -0.04971494274753
O           -3.02982655872566       -0.36630938664593       -0.06686553784261
N           -0.94539438029175       -1.28288647415847       -0.04227561296021
C           -1.50662482528890       -2.60668781529505       -0.04939819467931
H            3.73011068077710        1.21462859552036        1.06193692387508
H            3.96457388832139        1.08492823571140       -0.69468957568424
H            2.67070375934644        2.11879637561106       -0.03851305081913
H            3.58946207918616       -1.63564202954481        0.06816257881290
H           -1.67460791950636        3.11700337619322       -0.04029873089949
H           -2.85638967828889        2.14677381504481       -0.96008623253014
H           -2.90462580219377        2.13781524734890        0.80466032613381
H           -1.17123433207932       -3.14561840400300        0.83783313198036
H           -1.18196664021040       -3.13254489344824       -0.94832641664153
H           -2.59046244157460       -2.50875059102537       -0.04293029831649
H            1.70405943679063       -3.16153162437633       -0.05688752794343
25
 energy: 8.480128810579 xtb: 6.6.1 (8d0f1dd)
C            3.21688564195001        1.18453085586765        0.09556661974361
N            2.29057930700177        0.09313269894854        0.03974348569133
C            2.60246153781130       -1.25596974096128        0.03576837249106
N            1.46771535594860       -2.05360612934798       -0.01042811324954
C            0.41708602699322       -1.13403024735938       -0.02072506824783
C            0.90156222063243        0.18125204079060        0.01030093664739
C            0.09978602774203        1.36419463020687       -0.00663676020478
O            0.48534157155409        2.54058710252899        0.00023410144861
N           -1.29551601108578        1.07435884376614       -0.03936687905860
C           -2.24082449292305        2.18694783511681       -0.05987517713231
C           -1.83023176174705       -0.17249266368273       -0.04961894281182
O           -3.02973783961344       -0.36639033652458       -0.06689433862534
N           -0.94534285505647       -1.28314784790125       -0.04213580338240
C           -1.50690409651542       -2.60651631570356       -0.04941038882060
H            3.72963769148346        1.21525634320563        1.06227324650838
H            3.96496149440712        1.08461928049632       -0.69428398808994
H            2.67107879072788        2.11927423027817       -0.03901740178493
H            3.59015042726305       -1.63563207392259        0.06759815175674
H           -1.67452150750659        3.11705549069392       -0.04021934788804
H           -2.85651497553565        2.14710543274585       -0.96009925004761
H           -2.90496026566884        2.13818049745131        0.80462625254547
H           -1.17197146458556       -3.14574819878416        0.83789211737757
H           -1.18228291901373       -3.13262653835404       -0.94826305155669
H           -2.59076730639129       -2.50828137369717       -0.04312900913593
H            1.70454407006410       -3.16302521368604       -0.05686586802655
25
 energy: 8.569382505038 xtb: 6.6.1 (8d0f1dd)
C            3.21682831089515        1.18467816269605        0.09558720242733
N            2.29026381560653        0.09359971340745        0.03980134609804
C            2.60310332896511       -1.25605903013310        0.03540949627386
N            1.46841704541565       -2.05433453629671       -0.01054368034791
C            0.41750323990290       -1.13433564611097       -0.02063409302582
C            0.90123704006298        0.18122513774895        0.01044125055552
C            0.09964239138284        1.36398913533807       -0.00657785477991
O            0.48515706944886        2.54043800683220        0.00001008129428
N           -1.29587777024883        1.07445660215567       -0.03923750122037
C           -2.24110470107904        2.18727483809672       -0.05983425500865
C           -1.82997842288887       -0.17245979903163       -0.04951534235927
O           -3.02961888580846       -0.36652662962510       -0.06682534624713
N           -0.94525975987620       -1.28340625356107       -0.04202781659385
C           -1.50718945704138       -2.60635306773600       -0.04942185410216
H            3.72926677536234        1.21581292567213        1.06252063861707
H            3.96524143359168        1.08439587531043       -0.69397962137511
H            2.67135611145360        2.11964423397060       -0.03941074707543
H            3.59077459466122       -1.63563916429339        0.06741185980326
H           -1.67442684507881        3.11711025919522       -0.04015399082724
H           -2.85665437117622        2.14746008673683       -0.96010808791040
H           -2.90525277458743        2.13853495001029        0.80459603787522
H           -1.17271439451029       -3.14587929374225        0.83794333456839
H           -1.18266065388211       -3.13272540546914       -0.94819850335028
H           -2.59108238035212       -2.50782765692664       -0.04329956105756
H            1.70524392771708       -3.16404484207261       -0.05691909608462
