25
 energy: 0.000000000000 xtb: 6.6.1 (8d0f1dd)
C            3.23720163006194        1.16630919979326        0.08434469647475
N            2.29877817382611        0.07527477071623        0.03981603040599
C            2.58028210190900       -1.21425402444508        0.03006176031096
N            1.43813958087363       -1.93419271955128        0.00098261760884
C            0.39035688448383       -1.05887472636071       -0.00790371836672
C            0.93510056364412        0.21347819449412        0.01709077491437
C            0.09450143893243        1.40504303904423       -0.00410947031874
O            0.49712751527797        2.54126714362870       -0.00342325688240
N           -1.25076640035757        1.06271879480407       -0.03085478223738
C           -2.21907211982101        2.15522099834493       -0.05001256985998
C           -1.81739487048744       -0.20012725993278       -0.04692818574614
O           -2.99983886758376       -0.37846417018721       -0.07008878229737
N           -0.92618586207120       -1.30210215599479       -0.03682761578324
C           -1.46982264913417       -2.64643102187190       -0.06029820460571
H            3.71247264356769        1.21471455160235        1.06488849150277
H            4.00791497605742        1.03430808813993       -0.67357694370751
H            2.69910007168542        2.09770118228144       -0.09130154882931
H            3.56654120610678       -1.63682992603973        0.04233140067262
H           -1.67107961066214        3.09322851271934       -0.02552706933167
H           -2.82428953597071        2.09428624779827       -0.95318082946668
H           -2.87644029173232        2.07745725625962        0.81450067533302
H           -1.17061996399332       -3.19584890659852        0.83242232437030
H           -1.14560257411436       -3.17511610292205       -0.95688275822323
H           -2.55549792440841       -2.55659984320617       -0.07459039797972
H            1.38130855184625       -2.94313852034425       -0.01389874181052
25
 energy: -1.214814085109 xtb: 6.6.1 (8d0f1dd)
C            3.22988007176916        1.17910205558628        0.08832495127464
N            2.29411456038765        0.09141461673049        0.04072340110766
C            2.59539307285106       -1.23626094637806        0.03289161213084
N            1.45485939281916       -1.99506125521459       -0.00326635193411
C            0.40373308710262       -1.08888633891736       -0.00817151551802
C            0.91936068931932        0.20840004987314        0.01667664989725
C            0.09479402308416        1.39704572316995       -0.00511175692737
O            0.49321106679193        2.56340209465102       -0.00372591877979
N           -1.26801669978677        1.06407850629117       -0.03248469399703
C           -2.22957823644854        2.16542581225865       -0.05294267420596
C           -1.82436671008045       -0.18981421530089       -0.04697377638648
O           -3.02189860415666       -0.36779426270733       -0.06946208878918
N           -0.93516482899059       -1.29966369879497       -0.03644887854580
C           -1.48263755955574       -2.63123810952486       -0.05688996319149
H            3.71720352419564        1.22107542412143        1.06636506841880
H            3.99529039202542        1.04643121738273       -0.67814481927155
H            2.69460517387726        2.11250789023190       -0.08003095691776
H            3.57605437257766       -1.64207465830841        0.04811910379876
H           -1.67528131884500        3.10188544459395       -0.02995240779481
H           -2.83874641717549        2.11467502287088       -0.95551969123747
H           -2.89055113031236        2.10029463881087        0.81127578755377
H           -1.16849226389399       -3.17498238382160        0.83500587832928
H           -1.15066809433834       -3.15541270695734       -0.95394935947200
H           -2.56748829141910       -2.53595520336033       -0.06670529794172
H            1.49660539613822       -3.05956611511471       -0.03256840545318
25
 energy: 9.390325210844 xtb: 6.6.1 (8d0f1dd)
C            3.22001510795305        1.18579971463306        0.09260096168524
N            2.28426162121300        0.10177849166737        0.04107367607260
C            2.60247105542641       -1.25150982244684        0.03673191687734
N            1.47075709280158       -2.05749153505029       -0.00756271982206
C            0.41511490713774       -1.12648668487265       -0.01114841072617
C            0.89867381940320        0.19249981202413        0.01566879851330
C            0.09429514123001        1.37661704639328       -0.00554814609953
O            0.48440275568860        2.55808997779526       -0.00314404995099
N           -1.29083688603962        1.07186789596677       -0.03508422371889
C           -2.24168053069482        2.18367474623632       -0.05693558368277
C           -1.82884770968467       -0.17287059196488       -0.04759572485814
O           -3.03242386913459       -0.35602599871068       -0.06833745325245
N           -0.94619238913933       -1.28915692854360       -0.03733166005757
C           -1.50013394822785       -2.61013282014791       -0.05232826666604
H            3.72247231011221        1.22317979383228        1.06561970797281
H            3.97849590271447        1.06246649023159       -0.68498594983205
H            2.68743126954204        2.12382257085675       -0.06221952180105
H            3.58380884724479       -1.63536941171811        0.05697865462736
H           -1.67951316941868        3.11702899534659       -0.03585437597221
H           -2.85504029004963        2.14120290205488       -0.95842094778545
H           -2.90617726157780        2.13020903909820        0.80674422250241
H           -1.17002002028314       -3.15070426222063        0.83672965584770
H           -1.16427768916627       -3.13337654526901       -0.94915176989845
H           -2.58416747048427       -2.51441815329985       -0.05508007558846
H            1.66932607136975       -3.18166611972002       -0.05438481823925
25
 energy: 16.755046113713 xtb: 6.6.1 (8d0f1dd)
C            3.21440435658812        1.18616463522620        0.09489737088026
N            2.28178244225417        0.09964894700082        0.04025668625548
C            2.60267286703829       -1.25683097936170        0.03726004563911
N            1.47860380275507       -2.08027663507930       -0.01048399542884
C            0.42000379352151       -1.14304113923569       -0.01701850655546
C            0.89326168054000        0.18087885093291        0.01327152384816
C            0.09440323218020        1.36687152571403       -0.00588945688779
O            0.48203358406231        2.54706313258721       -0.00163699031081
N           -1.30056736608452        1.08007650803001       -0.03722237385385
C           -2.24753511399069        2.19459099559635       -0.05929583888227
C           -1.83044533123405       -0.16542505136371       -0.04851738905253
O           -3.03281148255874       -0.35621618909528       -0.06733489209170
N           -0.94809601766821       -1.28148967053523       -0.03984484058706
C           -1.50914461036560       -2.60020221852733       -0.04973137794534
H            3.72395141322331        1.21986675999941        1.06428697571883
H            3.96701244948482        1.07518548982853       -0.69025080713938
H            2.67945835475282        2.12631661590397       -0.04763993165585
H            3.58955742333189       -1.62996665456096        0.06345347817690
H           -1.68356140532186        3.12659842202451       -0.03938409386066
H           -2.86297999410313        2.15426282683069       -0.95975474744821
H           -2.91310939733582        2.14518791012933        0.80409331173977
H           -1.17225174414397       -3.13912465347777        0.83770070895821
H           -1.17732274288318       -3.12435017048073       -0.94741402999973
H           -2.59309377966269       -2.50438130108213       -0.04612426533381
H            1.75598825355613       -3.23237935483215       -0.06064266803615
25
 energy: 18.865181334117 xtb: 6.6.1 (8d0f1dd)
C            3.21362508110564        1.18494072935912        0.09532467505036
N            2.28266621486489        0.09636069424522        0.04009168344475
C            2.59958557976415       -1.25758543077366        0.03753806145728
N            1.47801272304555       -2.08147933895103       -0.01057392125012
C            0.41973765679882       -1.14426903339344       -0.01991639226154
C            0.89407884662822        0.17813977252905        0.01180219385059
C            0.09463503734511        1.36632705281914       -0.00616648641214
O            0.48192012897807        2.54356023927564       -0.00061503591221
N           -1.30209965769646        1.08403032591749       -0.03834825269481
C           -2.24883861333208        2.19722266180726       -0.05988180725571
C           -1.83166888216137       -0.16344452497635       -0.04907972226999
O           -3.03228556871901       -0.35775910149974       -0.06691567565862
N           -0.94785483637769       -1.27744279062677       -0.04123956189402
C           -1.51025342099405       -2.59796301325236       -0.04907598845785
H            3.72500788179971        1.21710162406789        1.06317352775762
H            3.96348101460105        1.07947417136797       -0.69254323458459
H            2.67647755209392        2.12500057618810       -0.04266247111426
H            3.58873207952926       -1.62823270772439        0.06659439179594
H           -1.68560833605858        3.12929671701369       -0.04025878656266
H           -2.86460350278937        2.15596647187656       -0.96007694485808
H           -2.91390562198468        2.14721955230178        0.80384844265454
H           -1.17141407235208       -3.13604320442445        0.83777300476224
H           -1.18058796279612       -3.12231168880418       -0.94725051301177
H           -2.59418345367426       -2.50349285322992       -0.04327098705871
H            1.77755880031753       -3.24558829894058       -0.06123630336896
25
 energy: 19.980924019804 xtb: 6.6.1 (8d0f1dd)
C            3.21386471337230        1.18406800871905        0.09519174829237
N            2.28407114450802        0.09379542331931        0.04048182898672
C            2.59620353627417       -1.25756732063377        0.03821808357140
N            1.47527059739193       -2.07853601266758       -0.00964914359669
C            0.41813922905375       -1.14241113587484       -0.02141359124476
C            0.89557735841341        0.17801446088004        0.01089786112545
C            0.09479935641767        1.36746236128535       -0.00618827257698
O            0.48193487997886        2.54294048703111        0.00012917307630
N           -1.30179973557102        1.08564619477645       -0.03903938455984
C           -2.24883240473056        2.19750683983321       -0.06003329955991
C           -1.83299891476362       -0.16282428185986       -0.04921338423616
O           -3.03238261248082       -0.35819182031842       -0.06649492747504
N           -0.94795377489551       -1.27494364112873       -0.04186904819677
C           -1.50958835657120       -2.59752795076125       -0.04901924221339
H            3.72602098660386        1.21569003514054        1.06215538703187
H            3.96226807820798        1.08090621392799       -0.69377891162466
H            2.67520459803829        2.12352489798740       -0.04122205933986
H            3.58635603413346       -1.62754949296445        0.06856707600319
H           -1.68677720181617        3.13012617149101       -0.04047465352847
H           -2.86485678565449        2.15562214275998       -0.96006123730485
H           -2.91358792830893        2.14682802965134        0.80397176523183
H           -1.16950774164289       -3.13459818148360        0.83761674123835
H           -1.18005879219404       -3.12119899780199       -0.94744380084971
H           -2.59349931110166       -2.50451849862647       -0.04260764070239
H            1.78434771527339       -3.25323533050975       -0.06168717140073
25
 energy: 20.618869961525 xtb: 6.6.1 (8d0f1dd)
C            3.21418171395274        1.18410036546965        0.09490508917239
N            2.28498755330346        0.09299211294717        0.04095302015921
C            2.59459419025134       -1.25751830783674        0.03887466087438
N            1.47324134315078       -2.07592030314240       -0.00860344171091
C            0.41701182405980       -1.14061173263526       -0.02198436547613
C            0.89640152860640        0.17911118199103        0.01046410210444
C            0.09483223882515        1.36853525622778       -0.00606078910285
O            0.48186654172279        2.54394696666368        0.00036627447954
N           -1.30116103386996        1.08556162027258       -0.03927269776182
C           -2.24845877293158        2.19702969096667       -0.05995137407938
C           -1.83371907738371       -0.16283997515085       -0.04909117600891
O           -3.03282260301538       -0.35765360463666       -0.06608897955341
N           -0.94830295952383       -1.27422243495605       -0.04193379728226
C           -1.50884734865401       -2.59775452457667       -0.04923677887479
H            3.72638157324757        1.21587684167320        1.06171546570941
H            3.96244748928752        1.08088709265012       -0.69405851150928
H            2.67493968821268        2.12305040559291       -0.04171495869633
H            3.58487965792821       -1.62759441028581        0.06910841033643
H           -1.68709734993873        3.13011047088705       -0.04033048725536
H           -2.86468113954616        2.15514016218304       -0.95990523239789
H           -2.91323535177822        2.14615115510582        0.80412405318831
H           -1.16837793694112       -3.13427821267130        0.83741150154221
H           -1.17860533687049       -3.12082635656824       -0.94764729353783
H           -2.59274881668160       -2.50537378605081       -0.04305367870356
H            1.78450705252251       -3.25887107194787       -0.06195511946836
25
 energy: 21.450092190183 xtb: 6.6.1 (8d0f1dd)
C            3.21443595518449        1.18465807124039        0.09460675928658
N            2.28563672128501        0.09307089242821        0.04154337288322
C            2.59388881752538       -1.25751627165774        0.03971036417977
N            1.47178286077890       -2.07344596367321       -0.00740410293154
C            0.41627159212619       -1.13890637117706       -0.02247828041882
C            0.89684589634339        0.18091116290475        0.01010405137063
C            0.09474842108012        1.36962907198157       -0.00586501042295
O            0.48167253363668        2.54566172738835        0.00026305976527
N           -1.30057199621934        1.08501204500452       -0.03933102071898
C           -2.24815252592028        2.19652557668958       -0.05980151715977
C           -1.83409578383350       -0.16295272402031       -0.04880036119523
O           -3.03334916156497       -0.35666741768135       -0.06558093913588
N           -0.94873559422629       -1.27415081270734       -0.04176590093966
C           -1.50824269810352       -2.59802228802243       -0.04953525117347
H            3.72638701366878        1.21692395786683        1.06158991911032
H            3.96314175393558        1.08054726765879       -0.69392564157548
H            2.67496376499022        2.12317567050437       -0.04283900367197
H            3.58401463876754       -1.62784157194020        0.06892110885282
H           -1.68718403175041        3.12994578060674       -0.04007485751270
H           -2.86449204456617        2.15480100059628       -0.95973721210414
H           -2.91304378229100        2.14557017494164        0.80426330458989
H           -1.16782797223389       -3.13430856365862        0.83722116078595
H           -1.17713626136917       -3.12068892741466       -0.94782028222324
H           -2.59215355291486       -2.50582503818770       -0.04383148031300
H            1.78341010360729       -3.26707784749932       -0.06239834318032
25
 energy: 22.135683322030 xtb: 6.6.1 (8d0f1dd)
C            3.21446558176293        1.18521367782431        0.09451185287986
N            2.28551683465817        0.09383967624273        0.04187636523874
C            2.59433931928723       -1.25741155348226        0.04039579802691
N            1.47195157630323       -2.07253526076535       -0.00673202427879
C            0.41637737084526       -1.13841814314561       -0.02279360047240
C            0.89662057088815        0.18207708211079        0.01001140915025
C            0.09456286293274        1.37009353300278       -0.00574650277925
O            0.48146905499294        2.54667565619092       -0.00010057374532
N           -1.30057217943645        1.08476844833637       -0.03920302855618
C           -2.24828773456462        2.19655844035959       -0.05970409427440
C           -1.83392658879664       -0.16292766514933       -0.04859754992304
O           -3.03350325502208       -0.35606417212760       -0.06533848377625
N           -0.94890945303198       -1.27449515069721       -0.04158225240402
C           -1.50821207166379       -2.59798083123114       -0.04967484575673
H            3.72614098825868        1.21786352969437        1.06177076056393
H            3.96367682944155        1.08026945179943       -0.69360224775702
H            2.67526026031963        2.12373231346350       -0.04358343291428
H            3.58424120100216       -1.62785332725520        0.06819074209439
H           -1.68716015486018        3.12992083461399       -0.03992020958950
H           -2.86453317785012        2.15489295288677       -0.95969264652735
H           -2.91322437255048        2.14556456957053        0.80430311822181
H           -1.16815277195603       -3.13447709635259        0.83718370027790
H           -1.17683965132616       -3.12075052457528       -0.94784060080445
H           -2.59215382620199       -2.50556008115173       -0.04424421068039
H            1.78306745450404       -3.27396775799074       -0.06285354606712
25
 energy: 22.736374212168 xtb: 6.6.1 (8d0f1dd)
C            3.21439591409204        1.18551944160562        0.09455622865030
N            2.28480199966297        0.09488131925313        0.04194449862519
C            2.59528014507043       -1.25702846516049        0.04126044527379
N            1.47324582721945       -2.07261719030517       -0.00633828959586
C            0.41693212800775       -1.13882922568380       -0.02308494471215
C            0.89596579242093        0.18242911829419        0.01012518359512
C            0.09432447459014        1.37012165065400       -0.00571913375146
O            0.48131468262474        2.54688206341784       -0.00055759395802
N           -1.30107614044326        1.08505886921555       -0.03894052671255
C           -2.24879647067927        2.19706065418282       -0.05965779939453
C           -1.83351440700407       -0.16268893073367       -0.04855185630432
O           -3.03335546485300       -0.35597152653496       -0.06539424645894
N           -0.94887197119633       -1.27481798488430       -0.04153942654994
C           -1.50855695376557       -2.59763577735771       -0.04967893787861
H            3.72589365229090        1.21823938643586        1.06202231936052
H            3.96384083673110        1.08005619986624       -0.69335326795187
H            2.67581875911317        2.12443853776497       -0.04379198244175
H            3.58502488380385       -1.62746181009029        0.06716644047318
H           -1.68721965847718        3.13011368382200       -0.03988724532053
H           -2.86481310720910        2.15528135849572       -0.95973558812574
H           -2.91368760744704        2.14601551921399        0.80428809842512
H           -1.16883073566497       -3.13453694607948        0.83723228182704
H           -1.17742008729922       -3.12082529394650       -0.94777468452760
H           -2.59253794926334       -2.50495939922943       -0.04423720928520
H            1.78405612561104       -3.27969665004413       -0.06331886711388
