25
 energy: 0.000000000000 xtb: 6.6.1 (8d0f1dd)
C            3.23720132972391        1.16630909158653        0.08434468864950
N            2.29877796055224        0.07527476373246        0.03981602671198
C            2.58028186251803       -1.21425391179017        0.03006175752192
N            1.43813944744728       -1.93419254010258        0.00098261751768
C            0.39035684826767       -1.05887462812143       -0.00790371763344
C            0.93510047688824        0.21347817468824        0.01709077332874
C            0.09450143016486        1.40504290868848       -0.00410946993748
O            0.49712746915594        2.54126690785742       -0.00342325656480
N           -1.25076628431515        1.06271869620815       -0.03085477937476
C           -2.21907191394203        2.15522079838987       -0.05001256521996
C           -1.81739470187490       -0.20012724136556       -0.04692818139228
O           -2.99983858926755       -0.37846413507442       -0.07008877579474
N           -0.92618577614240       -1.30210203518959       -0.03682761236648
C           -1.46982251276835       -2.64643077634382       -0.06029819901142
H            3.71247229913541        1.21471443890471        1.06488839270555
H            4.00791460421487        1.03430799217987       -0.67357688121503
H            2.69909982127087        2.09770098766290       -0.09130154035862
H            3.56654087521359       -1.63682977417947        0.04233139674524
H           -1.67107945562430        3.09322822573871       -0.02552706696334
H           -2.82428927394145        2.09428605349656       -0.95318074103337
H           -2.87644002486466        2.07745706351925        0.81450059976605
H           -1.17061985538665       -3.19584861009707        0.83242224714061
H           -1.14560246782873       -3.17511580834413       -0.95688266944647
H           -2.55549768731684       -2.55659960601237       -0.07459039105944
H            1.38130842369251       -2.94313824728853       -0.01389874052104
25
 energy: -5.488706739399 xtb: 6.6.1 (8d0f1dd)
C            3.23651667456403        1.17368221184595        0.08761986326770
N            2.30125846441667        0.09755523240514        0.03704881917972
C            2.60504081011756       -1.24595107690372        0.03252048418527
N            1.43433277292248       -1.96951375973223       -0.00132364102908
C            0.40575749498482       -1.08378195372283       -0.00885572372225
C            0.91511096874657        0.21144770162977        0.01585790688648
C            0.11285609008317        1.37950627966154       -0.00506390534774
O            0.49270409974052        2.55594513660465       -0.00424712381182
N           -1.27185189479097        1.05361108793224       -0.03200485797023
C           -2.22342401446696        2.15408897614031       -0.05091561470607
C           -1.81688853104350       -0.19294452451953       -0.04721210531139
O           -3.01593759089357       -0.38072729625131       -0.07007462784632
N           -0.93880484257514       -1.30039699716204       -0.03672165751753
C           -1.47656322401627       -2.63841644057662       -0.05888348463662
H            3.71920595178926        1.22115628943745        1.06795875811007
H            4.00511942757071        1.04125078524502       -0.67603160652053
H            2.69750173789259        2.10390427452130       -0.08604241685832
H            3.58527105588778       -1.64782097036585        0.05155458122277
H           -1.66753383748649        3.08997106300712       -0.02757148452557
H           -2.82975446253606        2.09887724598855       -0.95465240889066
H           -2.88104997025912        2.08304689448194        0.81498468319494
H           -1.16883354672520       -3.18783623486390        0.83370924359653
H           -1.14506066288624       -3.16786885658706       -0.95496343015860
H           -2.56117500946253       -2.54962666597867       -0.07316365100994
H            1.45413133293844       -2.99093634679038       -0.02860175151553
25
 energy: -3.403763948106 xtb: 6.6.1 (8d0f1dd)
C            3.23294685684116        1.17497624329919        0.08880524433929
N            2.29908791854385        0.09403527302968        0.03886636243081
C            2.60884154024247       -1.25230107128408        0.03540421705240
N            1.44877845750383       -1.99916314643962       -0.00346742716258
C            0.41232364805816       -1.10552995475747       -0.01007596077080
C            0.91118608083846        0.19769537262639        0.01620146424698
C            0.11066510766946        1.37192850044286       -0.00442619958082
O            0.49144307130030        2.55015495607221       -0.00326823356912
N           -1.27604711411203        1.05565559637975       -0.03272864382247
C           -2.22716772143688        2.15766000590792       -0.05232388959436
C           -1.81875448677340       -0.19052987130032       -0.04756410559913
O           -3.01826364464740       -0.37857536499035       -0.07056150939753
N           -0.93917062372231       -1.29979877386977       -0.03696629689289
C           -1.48199005265877       -2.63445697235559       -0.05749204228357
H            3.72235756455045        1.22237638260768        1.06643015324425
H            3.99874250229639        1.04661614185382       -0.67877044968407
H            2.69531369009941        2.10753249802141       -0.08014547774460
H            3.59407850431906       -1.63995158702994        0.06154974250949
H           -1.67132608866667        3.09375996686924       -0.02895799648931
H           -2.83365859680936        2.10353298982268       -0.95613890462610
H           -2.88614743009974        2.08787414166249        0.81290833605807
H           -1.17024847541179       -3.18218856293896        0.83461185431833
H           -1.14924871291800       -3.16213732652015       -0.95376201886899
H           -2.56578722187839       -2.54329187177738       -0.07049334361853
H            1.53971644200825       -3.03411809154600       -0.04098818260977
25
 energy: -0.013599259779 xtb: 6.6.1 (8d0f1dd)
C            3.22847366860765        1.17647436287333        0.08999413062875
N            2.29481377190803        0.09209484196292        0.04009514167989
C            2.60791595817372       -1.25632255676928        0.03951088880791
N            1.46273093394530       -2.02864673874407       -0.00551481837955
C            0.41760084167038       -1.12757356063659       -0.01280191897609
C            0.90588112456631        0.18322051318596        0.01544429704113
C            0.10624988419512        1.36151143825010       -0.00437065198313
O            0.48571768097026        2.54109620739183       -0.00210153887820
N           -1.28170362593955        1.05639760727629       -0.03348888737833
C           -2.22988269820251        2.16190498200804       -0.05352758442487
C           -1.82132875595461       -0.18925468694877       -0.04767878012824
O           -3.02115715794048       -0.37801654876056       -0.07018592657279
N           -0.94005797485463       -1.29992174908047       -0.03788308069273
C           -1.48830002175910       -2.63128037919743       -0.05663732369667
H            3.72504075679342        1.22201675686948        1.06459886061357
H            3.99200462595944        1.05140888745719       -0.68095853740079
H            2.69355476724151        2.11205324437875       -0.07392731102204
H            3.59629385894071       -1.63207469092397        0.07015309661411
H           -1.67152944105166        3.09684920629216       -0.03075894521678
H           -2.83700007537914        2.11027064867856       -0.95716087470832
H           -2.88974746031655        2.09558033957479        0.81150620215469
H           -1.17270279343071       -3.17830394380651        0.83442052366641
H           -1.15623185612733       -3.15749628718006       -0.95365071984339
H           -2.57122779691807       -2.53710004986707       -0.06714648384381
H            1.62752262892147       -3.07472366355555       -0.04931692789131
25
 energy: 4.828944530515 xtb: 6.6.1 (8d0f1dd)
C            3.22151995333982        1.17675152730670        0.09073843987818
N            2.28898291775839        0.08890226373487        0.04113303063191
C            2.60392717514360       -1.25878603333629        0.05206470002568
N            1.47628536956272       -2.05772699001087       -0.00710308837437
C            0.42202481690968       -1.14837133434266       -0.01551652154516
C            0.89992762552399        0.16913918743863        0.01415618046881
C            0.10246960911207        1.35469160723452       -0.00207812903000
O            0.48759852292378        2.53174670886777       -0.00063577821227
N           -1.28623577707360        1.05946163527591       -0.03417796754922
C           -2.23189452494284        2.16779300995621       -0.05412319769240
C           -1.82340268506222       -0.18605395904069       -0.04790228235288
O           -3.02382145835587       -0.37402666709770       -0.07047791735944
N           -0.94119894736213       -1.29883613561028       -0.03925568467233
C           -1.49360429037503       -2.62763768241519       -0.05605196201719
H            3.72249852715606        1.21992215316810        1.06330266452495
H            3.98353663752196        1.05509577500964       -0.68317934117679
H            2.68632590345877        2.11324752335775       -0.06972947169518
H            3.59369877864021       -1.62590835513498        0.07199967876839
H           -1.67168029901663        3.10188577793304       -0.03223109298563
H           -2.84053140484151        2.11829381899836       -0.95691932588384
H           -2.89189482352194        2.10433386923726        0.81113887020784
H           -1.17357571881934       -3.17366416241589        0.83398721978711
H           -1.15986582515038       -3.15149487222434       -0.95338966512911
H           -2.57596391353591       -2.53356329355022       -0.06506822332280
H            1.71227622152595       -3.11706696111864       -0.05639596747422
25
 energy: 12.754085232384 xtb: 6.6.1 (8d0f1dd)
C            3.21253844347579        1.17587456589456        0.09281890387918
N            2.27806595074316        0.08675186933086        0.03152259823309
C            2.59419919954096       -1.26870252750075        0.06431758461796
N            1.48900921685123       -2.10102963464191        0.07177880502250
C            0.42938984177820       -1.17857239616880       -0.02695468060021
C            0.89004790342771        0.16113982354759        0.00089020337735
C            0.09895318329918        1.35639756556130       -0.01189684756981
O            0.48499067478793        2.53418029477412       -0.00713266017383
N           -1.29031370143629        1.06502069413417       -0.03807599003516
C           -2.23198406469708        2.17228635933495       -0.05883105555941
C           -1.82420227071829       -0.17839271656191       -0.05319547302621
O           -3.02624145525807       -0.36692848852347       -0.05103913707293
N           -0.94214156010566       -1.29571271746751       -0.05193299841065
C           -1.50720806679818       -2.61971566776056       -0.05581987653053
H            3.70621748468731        1.19681853032171        1.07032379012025
H            3.98313343717290        1.07187832700055       -0.67937307298175
H            2.67352012004421        2.11296957752645       -0.04790723805446
H            3.58588627148896       -1.61050977072121        0.05875657164188
H           -1.66171526531323        3.10059314651388       -0.04271760403252
H           -2.83665370188623        2.11674163305011       -0.96317853384836
H           -2.89190726007920        2.11407229510252        0.80667337584234
H           -1.16667957111882       -3.16237239417897        0.82821848104430
H           -1.19591291272808       -3.15069982199003       -0.95708516219110
H           -2.58923527268976       -2.52650511954948       -0.04055120525082
H            1.81898902871267       -3.14327480058740       -0.12672472642804
25
 energy: 22.018712320776 xtb: 6.6.1 (8d0f1dd)
C            3.21166353501226        1.17713997355178        0.09184866630600
N            2.26257959876475        0.08750539598466        0.04597954430387
C            2.52079846044700       -1.23478731457208        0.06035844230883
N            1.43229351762421       -1.98963373209440        0.03145894313831
C            0.39573849589654       -1.09635054784067       -0.01771213346979
C            0.88988977091632        0.20464275820111        0.00700000027838
C            0.07499043110554        1.39378433796199       -0.00884391029821
O            0.46719687198251        2.54692643318609       -0.00381254086116
N           -1.28426973117445        1.08442308718073       -0.03703953885250
C           -2.24063495082334        2.18383020445319       -0.05584508102594
C           -1.83020784918737       -0.18522714113835       -0.04941368905531
O           -3.03061337360375       -0.34746066278311       -0.06394496577960
N           -0.95523912656698       -1.27171005829126       -0.04465945776243
C           -1.50052541963781       -2.61127814533597       -0.05391909060472
H            3.71832186828653        1.20877042080527        1.05858794714732
H            3.96891854222845        1.05980191670186       -0.68580451119180
H            2.68387867810950        2.11994392234680       -0.05713085342549
H            3.52464824121564       -1.61393012317587        0.08049899411700
H           -1.68295836126192        3.11871301213290       -0.03568577387696
H           -2.84926021273350        2.12942549618767       -0.95763761280282
H           -2.89928176500597        2.11723118273032        0.80964498843353
H           -1.16693940982263       -3.15185450129582        0.83222149161691
H           -1.16191390690509       -3.13453472607502       -0.94719484597148
H           -2.58321333755907       -2.52535554547598       -0.05929450318087
H            2.06685077265253       -3.59792204839833       -0.11270309116310
25
 energy: 20.582544733434 xtb: 6.6.1 (8d0f1dd)
C            3.20703304107222        1.17496574260326        0.09045528961992
N            2.25514906831905        0.08703099872460        0.04714753354377
C            2.50602498204506       -1.23734010020737        0.06377012103719
N            1.41744032868477       -1.99451040190014        0.04113306629635
C            0.38846763021426       -1.09020116861556       -0.01117642431344
C            0.88412012744172        0.21088627526287        0.00785192597966
C            0.07037329212117        1.40054548914368       -0.00947579956226
O            0.46079293462530        2.55394858317696       -0.00286629881183
N           -1.28923305036390        1.09097346373031       -0.03787455640088
C           -2.24481392729443        2.19071844714876       -0.05745768466894
C           -1.83523958761643       -0.17854275377219       -0.04916433466465
O           -3.03570742294006       -0.34036648618831       -0.06332483863318
N           -0.96148675887569       -1.26466795254796       -0.04448356363587
C           -1.50501793188423       -2.60484094544467       -0.05287287878312
H            3.71804672336133        1.20433394168984        1.05525662417547
H            3.96194623736585        1.06289084252288       -0.68992029690409
H            2.67994379588859        2.12004555521654       -0.05109811870784
H            3.51079580662591       -1.61370098653181        0.08154573410101
H           -1.68624290175906        3.12494904481131       -0.03728172835555
H           -2.85302526676341        2.13731398319869       -0.95945457705382
H           -2.90457933671045        2.12601790014981        0.80728225681252
H           -1.16717465693432       -3.14527026157371        0.83185250364878
H           -1.16786440257939       -3.12710019049337       -0.94739174430328
H           -2.58755676655974       -2.51981821028061       -0.05581818743113
H            2.16162438104287       -3.66163579111127       -0.12357450825384
25
 energy: 19.643012532803 xtb: 6.6.1 (8d0f1dd)
C            3.20347618143218        1.17343348796365        0.09190398392118
N            2.24887635297982        0.08851689792780        0.04842694296498
C            2.49287387315826       -1.23680181963314        0.06271957136552
N            1.40330119379327       -1.99076517064330        0.03625545280304
C            0.38118260566684       -1.07953383225432       -0.00803687414361
C            0.88005972199952        0.22061924930552        0.00795130072282
C            0.06678599501966        1.40997712725696       -0.01097621791137
O            0.45595933245365        2.56383651344742       -0.00224792168545
N           -1.29283912833196        1.09854126869378       -0.03875028907793
C           -2.24786431810697        2.19764239215378       -0.05874390842342
C           -1.83981237451621       -0.17095052562258       -0.04918958164230
O           -3.04045164556538       -0.33130100259715       -0.06343139210011
N           -0.96766594810566       -1.25653343394394       -0.04465334811381
C           -1.50899196539165       -2.59813071618857       -0.05107596129290
H            3.71713108392785        1.19975672163928        1.05513037554088
H            3.95598627271910        1.06693705555534       -0.69153373166832
H            2.67766719465986        2.12063856975955       -0.04388497812629
H            3.49694410942022       -1.61393452186830        0.07897552704407
H           -1.68741291950080        3.13054616549789       -0.03891903536299
H           -2.85606603430038        2.14414680353997       -0.96070570770966
H           -2.90731431236363        2.13367749855332        0.80630370294567
H           -1.16766578728915       -3.13767504514473        0.83298767931411
H           -1.17279797679016       -3.12056042519560       -0.94595631255703
H           -2.59163570329325       -2.51603586203135       -0.05225197073942
H            2.25815313562440       -3.73863404465194       -0.13452899890233
25
 energy: 19.170593174859 xtb: 6.6.1 (8d0f1dd)
C            3.20504214448921        1.17263482289157        0.09235640246278
N            2.24621917127077        0.09249569548769        0.04812750117251
C            2.48172005643057       -1.23392206887980        0.06238031566171
N            1.38958372209333       -1.97997983761259        0.03260842665629
C            0.37463976950138       -1.06501046389389       -0.00431793423024
C            0.87829783984636        0.23308326604269        0.00817412206573
C            0.06385446943700        1.42060726589845       -0.01241178916288
O            0.45153614172193        2.57500433030260       -0.00190229113263
N           -1.29606949097289        1.10635901166248       -0.03937619851425
C           -2.25198022015457        2.20379682605183       -0.05955887299623
C           -1.84335675675232       -0.16311998707805       -0.04941638200572
O           -3.04385058506669       -0.32297806047879       -0.06467973473206
N           -0.97257841724574       -1.24734893359470       -0.04359590413628
C           -1.51225967316598       -2.58996675432052       -0.04973263530579
H            3.71846815909418        1.19612612290968        1.05532597303180
H            3.95289193138565        1.06853840677231       -0.69545210540778
H            2.68519755513259        2.12385837516670       -0.04068057804114
H            3.48344696199452       -1.61640939171405        0.08202632131854
H           -1.69093283283922        3.13591851997459       -0.04014954204104
H           -2.86074633522665        2.14999262251082       -0.96109804689010
H           -2.91103911369167        2.14033315188284        0.80574970457967
H           -1.17040643561164       -3.12965796550232        0.83415871451960
H           -1.17649217411983       -3.11292884822676       -0.94467039806526
H           -2.59519106420606       -2.50866330470423       -0.05033165942729
H            2.34964821808384       -3.83011427661791       -0.14470925341699
25
 energy: 19.071095121059 xtb: 6.6.1 (8d0f1dd)
C            3.20683221647308        1.17591750737721        0.09154646841689
N            2.24474864968880        0.09981848429196        0.04574479685232
C            2.47068371301149       -1.22886470826243        0.05767619488596
N            1.37506848450534       -1.96587290038492        0.02727668684227
C            0.36763866296365       -1.04824814067707       -0.00327147127974
C            0.87708323640874        0.24695718106488        0.00757737437855
C            0.06108528624217        1.43187621214875       -0.01296745614214
O            0.44820878475148        2.58655417230493       -0.00201280022956
N           -1.29898776294785        1.11493051969311       -0.03946539408399
C           -2.25549596990410        2.21113757893637       -0.05996963295772
C           -1.84713289934406       -0.15457699301071       -0.04872677678151
O           -3.04752412248580       -0.31379061472717       -0.06461583609166
N           -0.97773862220662       -1.23731274104861       -0.04214115796472
C           -1.51413465684050       -2.58176744728023       -0.04922238554377
H            3.71609712992924        1.19722422648115        1.05670020716626
H            3.95036360382939        1.06997379629700       -0.69885219828526
H            2.68990842758068        2.12678663610211       -0.04177356547194
H            3.46900191908286       -1.62008007917150        0.07981076810820
H           -1.69362330030590        3.14246732763112       -0.04153362219326
H           -2.86531309633291        2.15674770545196       -0.96087891427207
H           -2.91419335071421        2.14898248356767        0.80560147984945
H           -1.16837332974484       -3.12265556953453        0.83278569359891
H           -1.17841391063959       -3.10381415676394       -0.94481041641519
H           -2.59772025834768       -2.50324290117008       -0.04629140342640
H            2.43801787620506       -3.94420856436663       -0.14354019967268
25
 energy: 19.187984873679 xtb: 6.6.1 (8d0f1dd)
C            3.20870965444465        1.17893176342938        0.09100770929745
N            2.24263007766279        0.10763726365027        0.04603260915398
C            2.45908486921113       -1.22335862274198        0.05509098843504
N            1.35941967119508       -1.95164394199803        0.02629014862284
C            0.35998471657310       -1.03042069624890       -0.00147071062999
C            0.87569097774202        0.26170115793029        0.00916973272709
C            0.05844999418613        1.44425656587720       -0.01077023518710
O            0.44548646094872        2.59910468394835       -0.00102771418226
N           -1.30188588237042        1.12447977133061       -0.03923302276731
C           -2.26026296030649        2.21805599621880       -0.06055300156427
C           -1.85129263862701       -0.14502893481708       -0.04801612188601
O           -3.05176432866289       -0.30379648633500       -0.06607005924222
N           -0.98320307072603       -1.22663430810563       -0.03906223964217
C           -1.51586461826179       -2.57290378031223       -0.04786462769498
H            3.71628180064281        1.20092330979802        1.05741797476729
H            3.94860183415790        1.06428382800783       -0.70045793182145
H            2.69325364561175        2.12882367098316       -0.04886409628530
H            3.45423179170983       -1.62323272876550        0.07933378145490
H           -1.69886214755354        3.14942311282197       -0.04229923137732
H           -2.87059352556647        2.16148953561234       -0.96129274986145
H           -2.91934252679141        2.15502870357487        0.80481606917971
H           -1.16601170639258       -3.11437506934451        0.83212173882244
H           -1.17853642171060       -3.09389991756216       -0.94339196523453
H           -2.60007534507542       -2.49915724375210       -0.04205562840104
H            2.50939538577168       -4.06918502998668       -0.14034582758720
25
 energy: 19.374593937681 xtb: 6.6.1 (8d0f1dd)
C            3.21064670779314        1.18246631725455        0.09085664678045
N            2.23964473190496        0.11611375328357        0.04599918070439
C            2.44673304456768       -1.21699617439200        0.05238585658710
N            1.34336195714347       -1.93672993209678        0.02548973767240
C            0.35204680144798       -1.01237466174360        0.00032025800997
C            0.87372690328978        0.27662264666932        0.01066292261078
C            0.05485186118747        1.45645071071695       -0.00895869417938
O            0.44158450057816        2.61151684254153       -0.00046104460659
N           -1.30508638709671        1.13228203148417       -0.03961050767583
C           -2.26466468390162        2.22455026146813       -0.06093138606455
C           -1.85520697107949       -0.13942475511502       -0.04749669048439
O           -3.05621960342373       -0.29541328814318       -0.06804787081165
N           -0.98848168809521       -1.21776108876314       -0.03197928734335
C           -1.51732812711322       -2.56503601040187       -0.04555367112819
H            3.71658712895236        1.20417424036681        1.05841066083281
H            3.95086709599150        1.05724532265589       -0.69852216084567
H            2.69818058082439        2.13334608925974       -0.05370527334742
H            3.43883369999263       -1.62566992659174        0.07811875441878
H           -1.70350587730452        3.15604084477829       -0.04234728147301
H           -2.87532117727438        2.16787248473321       -0.96155000074538
H           -2.92399977132978        2.16121539609314        0.80445399853838
H           -1.16371477657726       -3.10652336035797        0.83263713279193
H           -1.17635048524795       -3.08442733021701       -0.94065903275233
H           -2.60275229017764       -2.49685124210969       -0.03886593570153
H            2.56693014678285       -4.20587902392389       -0.12740479217048
25
 energy: 19.564001916561 xtb: 6.6.1 (8d0f1dd)
C            3.21169903369955        1.18724590973896        0.09088201873770
N            2.23672848042926        0.12495752643130        0.04559598522152
C            2.43724708591654       -1.20915871645981        0.04856025310916
N            1.32912187978107       -1.92098841090277        0.02358392486080
C            0.34486053158241       -0.99491773336288        0.00051682793975
C            0.87205671247309        0.29095187481381        0.01138260548916
C            0.05175311470902        1.46790074660212       -0.00920219540083
O            0.43726309989330        2.62347549108685       -0.00162374671345
N           -1.30609638020706        1.13751881363385       -0.04034849202265
C           -2.26744312934895        2.23010781965347       -0.06148017108665
C           -1.85888787902388       -0.13615373130039       -0.04785264902974
O           -3.06023485227483       -0.28836550075987       -0.06859616433131
N           -0.99336098551039       -1.21053728961332       -0.03053797961957
C           -1.51682465056789       -2.55916494647661       -0.04412788443088
H            3.71660566920705        1.20763796269344        1.05912513005938
H            3.95324072128709        1.05219827152675       -0.69563046598202
H            2.70462010051253        2.14089286485736       -0.05637435244285
H            3.42400657002275       -1.62963132164663        0.07504831889823
H           -1.70603131435986        3.16140447037349       -0.04310532617401
H           -2.87903965066038        2.17403261737014       -0.96175339385272
H           -2.92700426166430        2.16807285395632        0.80411699978720
H           -1.16110708057684       -3.09848119050891        0.83390448693981
H           -1.17189133415704       -3.07835985609262       -0.93803011092909
H           -2.60259690332839       -2.49395124111579       -0.03791596790349
H            2.61333910541347       -4.34562486481505       -0.11947446999273
25
 energy: 19.732929968237 xtb: 6.6.1 (8d0f1dd)
C            3.21345340758837        1.19329426181189        0.09122589053055
N            2.23570458958428        0.13438935799635        0.04567657098249
C            2.43271743505614       -1.20000731373682        0.04513597012098
N            1.31778497896294       -1.90471338796586        0.01931989786409
C            0.33894852730072       -0.97774416049375       -0.00025459356344
C            0.87204780354686        0.30492906920068        0.01262983324443
C            0.05049752575645        1.47911822780417       -0.00937774095971
O            0.43476388033971        2.63505043168140       -0.00295330884359
N           -1.30508906152636        1.14276378507325       -0.04118822193674
C           -2.26848541898522        2.23518318694439       -0.06244613571251
C           -1.86320604674676       -0.13127805184216       -0.04828609924585
O           -3.06480729960120       -0.27953756492044       -0.06841754265209
N           -0.99788375274832       -1.20318129392436       -0.03153199858153
C           -1.51147233111371       -2.55599627008616       -0.04505773376739
H            3.71612030424241        1.21284643604148        1.06090335867757
H            3.95814838955812        1.05238634654800       -0.69247872056702
H            2.70725856099942        2.14717303379910       -0.05799590562347
H            3.41353725906818       -1.63224291217722        0.06809869036324
H           -1.70845020822391        3.16721490751679       -0.04425711681520
H           -2.88142569828069        2.17980798017759       -0.96217873315643
H           -2.92775166249782        2.17293345948390        0.80328273744594
H           -1.15749374431355       -3.09057953947815        0.83534117599881
H           -1.16166827315118       -3.07528841680962       -0.93681238436161
H           -2.59739169224913       -2.49591535756456       -0.04272862509098
H            2.63773021634429       -4.49240254013612       -0.11297935509666
25
 energy: 19.856110250243 xtb: 6.6.1 (8d0f1dd)
C            3.21605587874732        1.20116766758303        0.09192498867933
N            2.23651495372151        0.14584387618671        0.04627201812260
C            2.43500840424185       -1.18761594028187        0.04310211541252
N            1.31704261390577       -1.88728392929645        0.01376556496423
C            0.33810783417658       -0.96225147083547       -0.00142382656572
C            0.87367373859365        0.31838069409145        0.01521608942735
C            0.05072225745776        1.48946425830219       -0.00785455277887
O            0.43207135493263        2.64621222583991       -0.00311785593222
N           -1.30140725584030        1.14610021572939       -0.03954296960759
C           -2.26585155348254        2.23493026489218       -0.06235111557470
C           -1.86456977984276       -0.12670888395031       -0.04718267695376
O           -3.06607809021878       -0.27429411936519       -0.06720763206105
N           -0.99820364085388       -1.19647283900287       -0.03250371881550
C           -1.50533377611524       -2.55236958739828       -0.04661808322166
H            3.71751756936174        1.21930820242515        1.06201896818247
H            3.96345321637645        1.05606345929906       -0.68874819138049
H            2.71068719071379        2.15490259855032       -0.05881889168423
H            3.41468241593194       -1.62213853226215        0.06234815957776
H           -1.71256482381596        3.17062873495948       -0.04350591070834
H           -2.87698337762723        2.17537729054132       -0.96241470685352
H           -2.92461304353443        2.16700986172967        0.80262419493441
H           -1.15248126111762       -3.08944677043548        0.83336803252175
H           -1.15472289267580       -3.07095929506061       -0.93872835845036
H           -2.59145438889812       -2.49578573065945       -0.04533002560738
H            2.63273714029987       -4.64016949149009       -0.10408305714244
25
 energy: 19.857764915939 xtb: 6.6.1 (8d0f1dd)
C            3.22003405733619        1.20980260534768        0.09196152984583
N            2.23979235529675        0.15810584355477        0.04717237498211
C            2.44732681574868       -1.17302643216202        0.04292152324920
N            1.33491838261229       -1.87734662634430        0.01137097290574
C            0.34819160582334       -0.95664113005424       -0.00325363898749
C            0.87636361929960        0.32728040405156        0.01877882958784
C            0.05049250984970        1.49634861848723       -0.00548169224593
O            0.42773322594954        2.65439270778700       -0.00370315576903
N           -1.30058075581606        1.15015184578311       -0.03771024013753
C           -2.26900980609520        2.23515088849637       -0.06060324782380
C           -1.85911026473087       -0.12463004351142       -0.04745696557711
O           -3.05998036844258       -0.27902739389930       -0.06863225226470
N           -0.98905378796206       -1.19380670826317       -0.03355127518877
C           -1.49768960182782       -2.54933693311931       -0.04765922291214
H            3.72087838713611        1.22366872096971        1.06231163504546
H            3.96650968758441        1.06165359244464       -0.68903151788697
H            2.71577216570593        2.16350994781494       -0.05895502048321
H            3.42710228311975       -1.60747761534940        0.06182264019011
H           -1.71974135048042        3.17359627094005       -0.04105032906223
H           -2.87722784130419        2.17012743803067       -0.96212144886854
H           -2.92674253925059        2.16087880062939        0.80465229506264
H           -1.14533465677420       -3.08749277845438        0.83202394315774
H           -1.14661745097571       -3.06862653415649       -0.93898602130776
H           -2.58435084989497       -2.49539403773089       -0.04766028667989
H            2.55644656114374       -4.76397600826371       -0.10205937291005
25
 energy: 19.804869709024 xtb: 6.6.1 (8d0f1dd)
C            3.22123090393103        1.21515454426616        0.09153068349048
N            2.24246124370735        0.16319221656189        0.04650074618437
C            2.45963618760581       -1.16476905546711        0.04450886844441
N            1.35503846497858       -1.87944814207706        0.01417250711032
C            0.35798878327826       -0.96768633295620       -0.00252133428801
C            0.87726390537936        0.32099245454951        0.01733062375530
C            0.05036091479468        1.49065523606784       -0.00574830729882
O            0.42898371370623        2.64787662647539       -0.00219314192375
N           -1.30243409763827        1.14937304859175       -0.03777322150232
C           -2.27104187657956        2.23560115936057       -0.06048127579350
C           -1.85353528498271       -0.12741373477592       -0.04721277767348
O           -3.05392456351102       -0.28648660161989       -0.06808171934917
N           -0.98085487329972       -1.19824972888214       -0.03294947539656
C           -1.49513188302941       -2.55107596663825       -0.04779461571068
H            3.72273243141730        1.22424408389694        1.06126379748136
H            3.96718803659337        1.06530661357838       -0.68958116542993
H            2.71794737410473        2.16954139358236       -0.05779276994014
H            3.44108049501265       -1.59578171629289        0.06437147412095
H           -1.72127917147094        3.17413831636397       -0.04030697842584
H           -2.87975279891114        2.17232661091707       -0.96217646315447
H           -2.93014145365802        2.16266017793639        0.80421178832767
H           -1.14363087928287       -3.08925738155887        0.83202439854126
H           -1.14428893394664       -3.07111304416247       -0.93896525851948
H           -2.58205534469327       -2.49472687849318       -0.04794641453894
H            2.42837301146666       -4.77602511048026       -0.10735605631647
