25
 energy: 0.000000000000 xtb: 6.6.1 (8d0f1dd)
C            3.23720163006194        1.16630919979326        0.08434469647475
N            2.29877817382611        0.07527477071623        0.03981603040599
C            2.58028210190900       -1.21425402444508        0.03006176031096
N            1.43813958087363       -1.93419271955128        0.00098261760884
C            0.39035688448383       -1.05887472636071       -0.00790371836672
C            0.93510056364412        0.21347819449412        0.01709077491437
C            0.09450143893243        1.40504303904423       -0.00410947031874
O            0.49712751527797        2.54126714362870       -0.00342325688240
N           -1.25076640035757        1.06271879480407       -0.03085478223738
C           -2.21907211982101        2.15522099834493       -0.05001256985998
C           -1.81739487048744       -0.20012725993278       -0.04692818574614
O           -2.99983886758376       -0.37846417018721       -0.07008878229737
N           -0.92618586207120       -1.30210215599479       -0.03682761578324
C           -1.46982264913417       -2.64643102187190       -0.06029820460571
H            3.71247264356769        1.21471455160235        1.06488849150277
H            4.00791497605742        1.03430808813993       -0.67357694370751
H            2.69910007168542        2.09770118228144       -0.09130154882931
H            3.56654120610678       -1.63682992603973        0.04233140067262
H           -1.67107961066214        3.09322851271934       -0.02552706933167
H           -2.82428953597071        2.09428624779827       -0.95318082946668
H           -2.87644029173232        2.07745725625962        0.81450067533302
H           -1.17061996399332       -3.19584890659852        0.83242232437030
H           -1.14560257411436       -3.17511610292205       -0.95688275822323
H           -2.55549792440841       -2.55659984320617       -0.07459039797972
H            1.38130855184625       -2.94313852034425       -0.01389874181052
25
 energy: -0.007451896141 xtb: 6.6.1 (8d0f1dd)
C            3.22863960488175        1.17911473386146        0.08825872764946
N            2.29191632049168        0.09146490175411        0.04092992862857
C            2.59343670230676       -1.23626016871765        0.03326428707653
N            1.45717909816443       -2.00205396110501       -0.00324376104345
C            0.40405307953200       -1.09199754518740       -0.00801194080171
C            0.91773371939722        0.20773408468794        0.01679461078977
C            0.09373566168554        1.39821562369273       -0.00508914999126
O            0.49209890903327        2.56464453419104       -0.00361121214870
N           -1.26891215831957        1.06622280063885       -0.03260677868124
C           -2.23071942768947        2.16773032643893       -0.05312641763964
C           -1.82451569206576       -0.18799514234419       -0.04696317212926
O           -3.02207552153874       -0.36551386951205       -0.06941474178869
N           -0.93556132399137       -1.29891418318966       -0.03636477596839
C           -1.48331068905723       -2.62975794409348       -0.05669820508263
H            3.71669177093106        1.22055754837864        1.06598871521260
H            3.99409657278627        1.04607993966936       -0.67819406324902
H            2.69542390975826        2.11383429413296       -0.07970158555042
H            3.57402408056017       -1.63979536372418        0.04858290947549
H           -1.67740837361581        3.10486574481062       -0.03020763539684
H           -2.84004571452049        2.11658282369813       -0.95559180813911
H           -2.89178188984968        2.10226927556135        0.81101358758395
H           -1.16796847954873       -3.17287201057677        0.83504960007419
H           -1.15056720566832       -3.15328829674907       -0.95372119879532
H           -2.56811721162290       -2.53505156867974       -0.06627190937011
H            1.51416892589586       -3.07678797546487       -0.03403011456747
25
 energy: 14.739930346829 xtb: 6.6.1 (8d0f1dd)
C            3.21814863733318        1.18553705629311        0.09227374006888
N            2.27962156137691        0.10249851710421        0.04134419482846
C            2.59710604888806       -1.25151889783940        0.03756703350484
N            1.47393612398386       -2.07330159471561       -0.00705098674771
C            0.41518836700839       -1.13214561960025       -0.01095126602774
C            0.89476615035440        0.19152681634371        0.01572683405173
C            0.09188921061704        1.37954264320586       -0.00545155872486
O            0.48198846596605        2.56126114581320       -0.00281205280951
N           -1.29330861844693        1.07740114531064       -0.03532483714307
C           -2.24482657143378        2.18883129090316       -0.05712483062372
C           -1.82977452705765       -0.16770280279187       -0.04757257104299
O           -3.03347774324529       -0.35052165465412       -0.06823963857155
N           -0.94783365757447       -1.28573811134063       -0.03717458585810
C           -1.50109831276103       -2.60616174721225       -0.05212541276838
H            3.72135228946079        1.22195063382409        1.06500957326948
H            3.97673799367047        1.06066665518695       -0.68511479946184
H            2.69007981012362        2.12638284256132       -0.06241887414129
H            3.57870556771925       -1.63082236304147        0.05791862463311
H           -1.68486624706641        3.12360344706552       -0.03608065693268
H           -2.85821195171157        2.14478765096299       -0.95851712535378
H           -2.90917967587265        2.13371712220942        0.80655131760687
H           -1.16800858072510       -3.14581936394425        0.83635908461059
H           -1.16273383176379       -3.12827522521179       -0.94860337287536
H           -2.58506690135881       -2.51355888201996       -0.05468413521512
H            1.71108106045170       -3.22311210224057       -0.05646980212902
25
 energy: 27.095027382975 xtb: 6.6.1 (8d0f1dd)
C            3.21186112881111        1.18594660318276        0.09460975793459
N            2.27588095527784        0.10082784015861        0.04061281315020
C            2.59567840059001       -1.25832312925872        0.03878718001591
N            1.48300290518721       -2.10405708196753       -0.00969634361699
C            0.42043688793015       -1.15076607430358       -0.01737094175086
C            0.88747734577933        0.17929281261087        0.01309422798376
C            0.09101955490832        1.37006241582579       -0.00571259683308
O            0.47826737908629        2.55098322429413       -0.00115628858765
N           -1.30549562266566        1.08870265663643       -0.03763467955145
C           -2.25333020702491        2.20276155648378       -0.05965988151548
C           -1.83255476930289       -0.15706001284630       -0.04839939075040
O           -3.03519966280116       -0.34854296840746       -0.06698457324353
N           -0.95093800747215       -1.27477777768950       -0.03975479270877
C           -1.51093056609436       -2.59295364268781       -0.04933968068693
H            3.72254696477430        1.21866794633237        1.06353363371096
H            3.96405423609459        1.07329986587126       -0.69082540234532
H            2.68279272949042        2.12999474403540       -0.04748637115052
H            3.58373200804760       -1.62423734973386        0.06543571215428
H           -1.69248753948865        3.13674838527984       -0.03986841201671
H           -2.86920566576170        2.16073221023133       -0.95984343333895
H           -2.91905895132000        2.15164050480035        0.80360485403285
H           -1.16883728588597       -3.13019267043340        0.83722333010651
H           -1.17497706194945       -3.11520984415283       -0.94660080637199
H           -2.59487168365997       -2.50222757609188       -0.04517918520029
H            1.82335119538591       -3.30228403599802       -0.06435483327288
25
 energy: 33.804715464553 xtb: 6.6.1 (8d0f1dd)
C            3.21103151734108        1.18474811580874        0.09472838045094
N            2.27596991246410        0.09809337202941        0.04091027622611
C            2.58997337150817       -1.25992756602301        0.04095872561626
N            1.48156155225515       -2.10877420570255       -0.00735457904648
C            0.41919837148366       -1.15154359912006       -0.02118384360441
C            0.88684583435804        0.17705698694470        0.01179527351197
C            0.09028955525829        1.37036896452680       -0.00539137087036
O            0.47657168305932        2.54823456787907       -0.00041633656598
N           -1.30938116735080        1.09567468990812       -0.03874925799636
C           -2.25663309025295        2.20795027158005       -0.06032063500680
C           -1.83556334333053       -0.15229794571476       -0.04884463837055
O           -3.03620380492295       -0.34876056909148       -0.06618674091799
N           -0.95226533543787       -1.26698156881850       -0.04163330055959
C           -1.51261981037082       -2.58804835204144       -0.04869088781995
H            3.72380414270051        1.21626333507882        1.06187006899453
H            3.95996768247189        1.07751332302802       -0.69375773119692
H            2.68062275947480        2.12942991505934       -0.04278448644495
H            3.58114385011232       -1.62146710558786        0.06946230882343
H           -1.69656672671003        3.14195248639858       -0.04083103053158
H           -2.87277868462462        2.16450161445087       -0.96029627514803
H           -2.92180112108772        2.15582410315474        0.80335954879195
H           -1.16712215465657       -3.12382660319387        0.83706865493093
H           -1.17760500768965       -3.11022340591278       -0.94622230032331
H           -2.59658169793838       -2.50086639338986       -0.04220767916227
H            1.87035637982176       -3.34586582907906       -0.06824824763334
25
 energy: 39.616110491455 xtb: 6.6.1 (8d0f1dd)
C            3.21010302645276        1.18389205018424        0.09301287984064
N            2.27307195933905        0.09808695451091        0.04264905589484
C            2.58027110914204       -1.25969290348627        0.04919637148582
N            1.47770192650146       -2.11355502204437        0.00564629374476
C            0.41602656468852       -1.15075117619606       -0.02447350545949
C            0.88355946681121        0.17791811053262        0.01238686965911
C            0.08883739007370        1.37260267512786       -0.00306396317136
O            0.47349701110896        2.54915774878949       -0.00200105695228
N           -1.31332912678488        1.10224525828409       -0.03871629173427
C           -2.25940491112424        2.21320286381252       -0.06045294500545
C           -1.83889461736517       -0.14683413068688       -0.04904328259717
O           -3.03848816616879       -0.34586984589450       -0.06487050967819
N           -0.95568076386764       -1.25894949662507       -0.04483559924659
C           -1.51421372725550       -2.58288478548153       -0.04911168795407
H            3.72417933249750        1.21475079648720        1.05906100064972
H            3.95724760430143        1.07726185637052       -0.69667409468696
H            2.68123646426237        2.13007128308691       -0.04279733873643
H            3.57381235673280       -1.61724973194889        0.07178752837757
H           -1.69962348998623        3.14716406463879       -0.04102672769921
H           -2.87544591545000        2.16854222612404       -0.96046745210203
H           -2.92420756300587        2.16009691642902        0.80351205714282
H           -1.16478126209519       -3.11667226920251        0.83609590398407
H           -1.17758546135410       -3.10513590359094       -0.94587265738247
H           -2.59819150389587       -2.50027470835211       -0.04134595966909
H            1.93251696437788       -3.40809422869708       -0.08156099255700
25
 energy: 40.269610587884 xtb: 6.6.1 (8d0f1dd)
C            3.20760490421543        1.18119018148886        0.09130139018007
N            2.26137696298797        0.10084868984068        0.04442196498714
C            2.55016711466456       -1.25698823582684        0.06121049977608
N            1.46519268086013       -2.12553307110961        0.02993830031931
C            0.40765333748261       -1.14650724312744       -0.02938371731192
C            0.87232732344204        0.18374260764556        0.01197667337781
C            0.08553562187659        1.37996653769756       -0.00042771883536
O            0.46442866356513        2.55362503898469       -0.00478108533098
N           -1.32249160948541        1.11889919203809       -0.03922483333745
C           -2.26558918117367        2.22608472483408       -0.06131180457414
C           -1.84476398810871       -0.13323636555610       -0.04877909857844
O           -3.04284195485132       -0.33748522110796       -0.06294729019040
N           -0.96487088520083       -1.23872196601357       -0.04835022047072
C           -1.51852261208984       -2.56967051299677       -0.04830255377412
H            3.72377885051253        1.20973853138526        1.05551131916101
H            3.95172495974206        1.07536782929254       -0.70031264712829
H            2.68501599690188        2.13265667011448       -0.04076000024950
H            3.54977683499362       -1.60790884406394        0.07420216899556
H           -1.70490877340121        3.15887107444167       -0.04234955446984
H           -2.88071761598650        2.17734545103989       -0.96157967143038
H           -2.92892478753981        2.16983008086470        0.80345306095499
H           -1.16106300425720       -3.10211929394479        0.83429473498217
H           -1.17773214172703       -3.09311057279742       -0.94277897814477
H           -2.60253117211663       -2.49808688262281       -0.03864132018042
H            2.10258914262981       -3.56976979832878       -0.10934572258016
25
 energy: 34.248325690882 xtb: 6.6.1 (8d0f1dd)
C            3.20523757401845        1.17633851676868        0.09172686371045
N            2.24665070960089        0.10120937942000        0.04701871965045
C            2.50575136744500       -1.25190394816690        0.06481324775471
N            1.44311378832308       -2.12094454977363        0.04109697723097
C            0.39469642240584       -1.12949907396229       -0.02413400331231
C            0.86210242630924        0.19740677447115        0.01040687309444
C            0.08020012308122        1.39546936761903       -0.00398384898800
O            0.45340637861517        2.56138347662257       -0.00499434628072
N           -1.32587726439569        1.13560157532169       -0.04083546481560
C           -2.26941407371599        2.23721776404539       -0.06237925647100
C           -1.84888754142367       -0.12313572995141       -0.04803258981651
O           -3.04578182807416       -0.32682663623366       -0.06249606544793
N           -0.97332502588544       -1.21893625133316       -0.04463840052600
C           -1.52082171395365       -2.55807853906023       -0.04612286219259
H            3.72264245770426        1.20395121578579        1.05402940120091
H            3.94674218302320        1.06962615643308       -0.70108291923010
H            2.69066348166313        2.13373653344168       -0.03951271475882
H            3.51215193712474       -1.60312395477473        0.07732987407798
H           -1.71025498071986        3.17013716364100       -0.04423968856790
H           -2.88388120178429        2.18364893889113       -0.96256727039390
H           -2.93167429150004        2.17721207105972        0.80268499202140
H           -1.15704131464024       -3.09026334864590        0.83316295332293
H           -1.17443748694097       -3.08104530800046       -0.93834619333755
H           -2.60505745141400       -2.49644841643155       -0.03672031207440
H            2.29530999306996       -3.75370457501495       -0.13515006970366
25
 energy: 23.154996429009 xtb: 6.6.1 (8d0f1dd)
C            3.20728686719566        1.17110370377415        0.09353269214911
N            2.23717782483024        0.09292456222611        0.04907780071658
C            2.43839526494870       -1.23641025403245        0.05359199326568
N            1.38173396284344       -2.02675254812368        0.02862319824265
C            0.36644597707930       -1.05919117303381       -0.00079047534985
C            0.86703407204604        0.23906373540923        0.00689155313421
C            0.06992565122482        1.43311840375458       -0.01464106514927
O            0.44677500819391        2.57968844567150       -0.00111827237434
N           -1.30672897307230        1.13966993361418       -0.04173065751826
C           -2.26325724249500        2.23401675798239       -0.06245734405234
C           -1.84879233590591       -0.13349544172625       -0.04717980215200
O           -3.04595069431069       -0.31251504232523       -0.06506557132394
N           -0.97835884891891       -1.21030811682122       -0.03019031837522
C           -1.51577087406845       -2.55924045679211       -0.04431273989419
H            3.71928143593621        1.20057883851345        1.05646998599097
H            3.94973271375250        1.05841424297755       -0.69601698257074
H            2.69625496356377        2.12998616939926       -0.04459897291580
H            3.45489649549279       -1.61466458348145        0.07878890713004
H           -1.71184361019988        3.17116803009320       -0.04469909284532
H           -2.87846658248485        2.17909793904915       -0.96191742021641
H           -2.92720270706160        2.17248488401778        0.80095206778107
H           -1.15514567109116       -3.09181211815828        0.83332521519557
H           -1.16570377063643       -3.07779303450804       -0.93588989494805
H           -2.60060736924986       -2.49690672904857       -0.03928091187810
H            2.47510311032382       -3.99319754625939       -0.14432999589475
25
 energy: 20.654091359909 xtb: 6.6.1 (8d0f1dd)
C            3.21196503778361        1.17785140010222        0.09080020047110
N            2.24173206504462        0.09750210590059        0.04574798504970
C            2.41480211372765       -1.22581092341353        0.04770397400705
N            1.32442323137426       -1.95146454140857        0.02481043216942
C            0.34680714360563       -1.00297056059212        0.00223299741746
C            0.87579411177377        0.27541979643532        0.00877520103988
C            0.05791785464767        1.46333859139347       -0.00869350444675
O            0.44224349498168        2.60817314653371        0.00097886108066
N           -1.29697141092616        1.14184107108719       -0.03926863155473
C           -2.26312896257815        2.23233988512417       -0.06169843921756
C           -1.85426972979367       -0.13842439198010       -0.04844910798674
O           -3.05358530970924       -0.29220646337513       -0.06803519024300
N           -0.98813238180899       -1.20515305922788       -0.03083192511830
C           -1.51079732293531       -2.55942480506587       -0.04629877456188
H            3.71689840588817        1.20199321904649        1.05725115938480
H            3.95685497632762        1.05468447093167       -0.69435831161398
H            2.69959234713060        2.13321883464494       -0.05195116080968
H            3.42852597021721       -1.62329086296006        0.07468767467610
H           -1.71547597518255        3.17216177391742       -0.04194012965423
H           -2.87624907110998        2.17443733123048       -0.96201161607228
H           -2.92568248954754        2.16534734612878        0.80187720969698
H           -1.15089325971593       -3.09167161542303        0.83197681529721
H           -1.15803469853316       -3.07458472426991       -0.93809872290463
H           -2.59584283590869       -2.49800551865341       -0.04301060870081
H            2.58372136318309       -4.24627290393479       -0.12516249125849
25
 energy: 20.628193998646 xtb: 6.6.1 (8d0f1dd)
C            3.21523032296834        1.18902118981702        0.09117537609694
N            2.24499249238676        0.11357908083013        0.04557705589092
C            2.41607120712954       -1.21754739816745        0.04579825673441
N            1.28649521721112       -1.90836473519431        0.01774637951420
C            0.33760977375670       -0.96406552091495        0.00100288977473
C            0.88120804378462        0.30757803605593        0.01211387543349
C            0.04832958051134        1.48620107955612       -0.00869693971352
O            0.43644143667251        2.63637005578937       -0.00137877818339
N           -1.29606387633719        1.14727896188868       -0.03876413956924
C           -2.26730503292656        2.23465148877998       -0.06068228699833
C           -1.86080129685824       -0.13548572235214       -0.04768105934561
O           -3.06144634957338       -0.27603291976306       -0.06800925000218
N           -0.99607569556810       -1.19807546495954       -0.03232400760545
C           -1.50379499615853       -2.55531207271632       -0.04694099057219
H            3.71691158014034        1.20856992161874        1.06006645834912
H            3.96254617979915        1.05508710134124       -0.69049461302283
H            2.70393810284457        2.14157597897195       -0.05589067371595
H            3.41737310615191       -1.62658479307681        0.06812622449527
H           -1.71963804209266        3.17443161291219       -0.04118826978277
H           -2.87769149574138        2.17126723362632       -0.96151374672060
H           -2.92676672492954        2.16224846485126        0.80410952591172
H           -1.14620677544998       -3.08939195659689        0.83197596286775
H           -1.14930994215603       -3.07127522319141       -0.93807512407267
H           -2.58946423804233       -2.49875270242140       -0.04583762278171
H            2.63963209041324       -4.49794309451262       -0.11318060683482
25
 energy: 20.683774328038 xtb: 6.6.1 (8d0f1dd)
C            3.21579840500092        1.19652950066655        0.09075740578617
N            2.24203390686869        0.12980677865171        0.04568927549831
C            2.42671430578705       -1.20672680733144        0.04396462284963
N            1.28428523009199       -1.89134345820588        0.01450262348628
C            0.33865136326433       -0.94900733937316       -0.00114154424200
C            0.88160562379944        0.32460694499065        0.01657469859111
C            0.04453651036473        1.49593444174369       -0.00575321638911
O            0.43204617754800        2.65040502825470       -0.00203770807209
N           -1.29825656358296        1.15031362104986       -0.03765165282041
C           -2.27005373035222        2.23669316746499       -0.06041065022282
C           -1.86319308597941       -0.13147043723965       -0.04754931632981
O           -3.06405593791737       -0.27180519790553       -0.06848062402788
N           -0.99658668317743       -1.19487614812249       -0.03363245599065
C           -1.49876993711117       -2.55133285184601       -0.04772647519374
H            3.71769739144863        1.21371650984613        1.06035439957480
H            3.96491548410119        1.05607624833291       -0.68909148305189
H            2.70827709607225        2.14957089256599       -0.05840509193011
H            3.41716459875353       -1.62036956191116        0.06353912215348
H           -1.72117745262287        3.17548879666669       -0.04010372445035
H           -2.87837057494960        2.17180142742891       -0.96196759078302
H           -2.92872520075636        2.16198781137144        0.80421152563373
H           -1.14422356521772       -3.08737285390951        0.83197261469419
H           -1.14470413010448       -3.06937522657732       -0.93848120899488
H           -2.58531266743287       -2.49730565442497       -0.04796466024217
H            2.63191810403992       -4.65291703001507       -0.10413498937948
25
 energy: 20.401892960434 xtb: 6.6.1 (8d0f1dd)
C            3.21710184517798        1.20357247912299        0.09172299099237
N            2.23829230377955        0.14677743604865        0.04683106284319
C            2.44162083999551       -1.19083601773705        0.04313370073419
N            1.30274803564345       -1.88167895885392        0.01076082113183
C            0.34424955011648       -0.94724960586258       -0.00320510295902
C            0.88028978137125        0.33180086168020        0.01929465919981
C            0.04452909699166        1.49816203367328       -0.00629552097643
O            0.42937633502333        2.65554150768618       -0.00441721160296
N           -1.30054415064226        1.15079984306622       -0.03767845135869
C           -2.27125262563781        2.23720920540312       -0.06024884747725
C           -1.86205975664272       -0.12825441959468       -0.04708962511842
O           -3.06278474373420       -0.27446205141403       -0.06758939229341
N           -0.99272027650155       -1.19534343625756       -0.03404705595436
C           -1.49599529596191       -2.54931709628105       -0.04775146079383
H            3.71932621190141        1.21830574224948        1.06176799975803
H            3.96686729646025        1.05804977979172       -0.68735817707210
H            2.71383591289641        2.15822592831067       -0.05868398547558
H            3.42414986603814       -1.60992210371235        0.06197206330034
H           -1.72148771457587        3.17542015161776       -0.04048768503933
H           -2.87957625195371        2.17211614679446       -0.96159576570707
H           -2.92911220596632        2.16261111033893        0.80479895593779
H           -1.14386494383357       -3.08729624506319        0.83236142831672
H           -1.14382822217049       -3.06963016570266       -0.93840332071927
H           -2.58335616220783       -2.49590104292326       -0.04816922787436
H            2.57640994236899       -4.74967248020932       -0.10258895564493
25
 energy: 20.010314624188 xtb: 6.6.1 (8d0f1dd)
C            3.21939261803246        1.21092172401729        0.09139190132542
N            2.23684054219468        0.16225531697340        0.04732091255303
C            2.45716707603942       -1.17235462410405        0.04285188040861
N            1.33491853687510       -1.87665347919718        0.01093723344422
C            0.35283354375458       -0.95594769603288       -0.00361338140501
C            0.87834113778973        0.33025768582239        0.02103841598224
C            0.04727669438005        1.49529905311416       -0.00487154521829
O            0.42800112664404        2.65406270005069       -0.00334160749625
N           -1.30254566813730        1.15002642965756       -0.03726492861578
C           -2.27172687026706        2.23666141748752       -0.06035328787519
C           -1.85762577289486       -0.12582398034321       -0.04738149237110
O           -3.05805592503715       -0.28158478943494       -0.06834336617983
N           -0.98542901484379       -1.19767843810469       -0.03368761295530
C           -1.49426513104410       -2.54900584387402       -0.04807648138555
H            3.72186930670880        1.22266035969367        1.06137728539743
H            3.96738110884267        1.06161685018231       -0.68872395945182
H            2.71852804030850        2.16682920151762       -0.05888194024085
H            3.43508170630668       -1.59998311252509        0.06178010521518
H           -1.72172048621985        3.17484081794395       -0.03999125336396
H           -2.87977997162718        2.17280526342229       -0.96216503760462
H           -2.93050560473666        2.16281040952880        0.80420766863055
H           -1.14384705209713       -3.08831425375284        0.83217433704553
H           -1.14338863109889       -3.07048420472278       -0.93884911167969
H           -2.58194612572545       -2.49458334584129       -0.04870808644546
H            2.48541948378890       -4.79960485930664       -0.10179275156622
25
 energy: 19.852952263411 xtb: 6.6.1 (8d0f1dd)
C            3.22087337864544        1.21444536515124        0.09240111024266
N            2.23924006661705        0.16582500207050        0.04700829418275
C            2.46165926461667       -1.16479854440522        0.04334301381490
N            1.35262015465265       -1.87727047658824        0.01094011445617
C            0.35733666863955       -0.96464474080658       -0.00378457721792
C            0.87763806202638        0.32440460027560        0.01850092442720
C            0.04972777697904        1.49174198451062       -0.00709107638188
O            0.42829153263084        2.64989528038124       -0.00444130047421
N           -1.30286035134399        1.14920489156368       -0.03807750079142
C           -2.27132844562102        2.23584007813636       -0.06032776755636
C           -1.85430713845969       -0.12595452665120       -0.04713279067688
O           -3.05460596824196       -0.28631432336449       -0.06733782889765
N           -0.98120424958144       -1.19901262722105       -0.03326562267188
C           -1.49451974176286       -2.55014047199974       -0.04759734505478
H            3.72209575695679        1.22418936603681        1.06258289237263
H            3.96775338354679        1.06455702554795       -0.68797389895802
H            2.71953408385759        2.17019540852400       -0.05743045779307
H            3.44044305636873       -1.59665868331634        0.06372447474094
H           -1.72125883031898        3.17417364075421       -0.04074364491689
H           -2.88061630590684        2.17239028479066       -0.96157059319597
H           -2.92962734332597        2.16294208227811        0.80491707045391
H           -1.14352857902946       -3.08915791983989        0.83238756088089
H           -1.14458436635121       -3.07145143161011       -0.93865660368251
H           -2.58186233494246       -2.49434227218552       -0.04743613214674
H            2.43530513728453       -4.79103038986058       -0.10590441900857
25
 energy: 19.813704729740 xtb: 6.6.1 (8d0f1dd)
C            3.22121968119520        1.21503280781109        0.09143229096478
N            2.24130702682715        0.16438358834275        0.04675957038888
C            2.46079823398884       -1.16430877826133        0.04404600680278
N            1.35579204710833       -1.87886218662316        0.01341972732859
C            0.35811537897992       -0.96762936579137       -0.00265495343711
C            0.87748900601451        0.32145351119551        0.01820912012590
C            0.05043575288728        1.49052424990934       -0.00537646585962
O            0.42878269021691        2.64800641605475       -0.00207036030653
N           -1.30265326772526        1.14914204125786       -0.03761905600666
C           -2.27111536854626        2.23562664296438       -0.06047860691421
C           -1.85347693015902       -0.12663833140033       -0.04737855891508
O           -3.05377360237442       -0.28705546140626       -0.06838566799208
N           -0.98051431684253       -1.19886069672815       -0.03296527493152
C           -1.49495448014345       -2.55078797940755       -0.04790065362197
H            3.72286622801731        1.22439167834843        1.06115132282566
H            3.96698460343316        1.06509798288709       -0.68981443171297
H            2.71846702253764        2.16993551107396       -0.05794861966395
H            3.44129110559558       -1.59612521481762        0.06396688101197
H           -1.72128829626855        3.17412395402418       -0.04012215511004
H           -2.87969323277166        2.17251379544929       -0.96227942983886
H           -2.93036668860034        2.16266197639069        0.80409660849298
H           -1.14384511320686       -3.08937961321741        0.83198816804818
H           -1.14427443331638       -3.07127374146995       -0.93900304728661
H           -2.58199876584659       -2.49453701819191       -0.04815372954695
H            2.42662038693567       -4.77840716622225       -0.10588478869826
25
 energy: 19.806478758034 xtb: 6.6.1 (8d0f1dd)
C            3.22124255051432        1.21510314637016        0.09222575587057
N            2.24211961900380        0.16354524480474        0.04648781684394
C            2.46002598503536       -1.16461336048620        0.04409457171778
N            1.35550340908401       -1.87935185511107        0.01297610400812
C            0.35805513037246       -0.96790403973853       -0.00310471268547
C            0.87740006741526        0.32093691478059        0.01677824314111
C            0.05047610231748        1.49048945653824       -0.00708080036392
O            0.42893179407530        2.64777787050801       -0.00356678845526
N           -1.30251942161778        1.14924907562658       -0.03824774629713
C           -2.27105208490986        2.23559691079797       -0.06036743759815
C           -1.85348083253993       -0.12707428378699       -0.04722866968699
O           -3.05383333394814       -0.28682256129950       -0.06749221793690
N           -0.98068698403763       -1.19851903613734       -0.03310807578778
C           -1.49512741018197       -2.55100363976448       -0.04752060225104
H            3.72216705709837        1.22402284053194        1.06224169368461
H            3.96754021253932        1.06541460636701       -0.68847336284307
H            2.71823687693453        2.16973453853522       -0.05718149418101
H            3.44120557657805       -1.59593798882173        0.06446695405564
H           -1.72121824462901        3.17411292925925       -0.04063901281391
H           -2.88039356470384        2.17227546274079       -0.96164307823632
H           -2.92954938213873        2.16274786730800        0.80480078437835
H           -1.14338145687186       -3.08916986411359        0.83231218247165
H           -1.14469249382312       -3.07136273453141       -0.93868742727779
H           -2.58208660199009       -2.49469829002436       -0.04729656255018
H            2.42733209835990       -4.77552060818125       -0.10771222105953
25
 energy: 19.804893835268 xtb: 6.6.1 (8d0f1dd)
C            3.22123120278737        1.21515465700463        0.09153069198243
N            2.24246145175632        0.16319223170238        0.04650075049857
C            2.45963641580363       -1.16476916353096        0.04450887257381
N            1.35503859069507       -1.87944831644674        0.01417250842520
C            0.35798881649141       -0.96768642273530       -0.00252133452193
C            0.87726398676933        0.32099248433025        0.01733062536318
C            0.05036091946702        1.49065537436646       -0.00574830783213
O            0.42898375350608        2.64787687213761       -0.00219314212722
N           -1.30243421847428        1.14937315522721       -0.03777322500681
C           -2.27104208728016        2.23560136677308       -0.06048128140478
C           -1.85353545694827       -0.12741374659699       -0.04721278205374
O           -3.05392484684517       -0.28648662819928       -0.06808172566559
N           -0.98085496430055       -1.19824984005223       -0.03294947845352
C           -1.49513202174336       -2.55107620331959       -0.04779462014492
H            3.72273277680148        1.22424419747871        1.06126389594230
H            3.96718840465743        1.06530671241440       -0.68958122940725
H            2.71794762626791        2.16954159486604       -0.05779277530198
H            3.44108081426599       -1.59578186434483        0.06437148009315
H           -1.72127933116617        3.17413861085120       -0.04030698216540
H           -2.87975306608615        2.17232681245915       -0.96217655242238
H           -2.93014172550794        2.16266037858165        0.80421186294008
H           -1.14363098538558       -3.08925766817110        0.83202447573404
H           -1.14428904011041       -3.07111332909132       -0.93896534563392
H           -2.58205558424878       -2.49472710994661       -0.04794641898727
H            2.42837323676398       -4.77602555358584       -0.10735606627665
