25
 energy: -42.119735647756 gnorm: 0.003348987253 xtb: 6.6.1 (8d0f1dd)
C            2.94846779296679        1.18482905117177        0.00758638255872
N            2.16850889060540       -0.02358550025722       -0.01076362683499
C            2.62037400201770       -1.26734805848821       -0.01790863670063
N            1.58274422187959       -2.13246201898098       -0.01485215606753
C            0.42232876560744       -1.40417471318973       -0.00464236595127
C            0.80062016627056       -0.06660462488918       -0.00084366195982
C           -0.22342855946540        0.99521213286283       -0.01750521867820
O            0.05730661853003        2.18081249483298       -0.04718718009437
N           -1.46375528308201        0.49638301730661       -0.00236206508045
C           -2.34948543383984        3.91149064185618        0.03719317665865
C           -1.87876635177627       -0.76487730346789        0.00572317314213
O           -3.02309757244263       -1.12628251484703        0.01723231386652
N           -0.84402185878524       -1.81332964454087       -0.00515282667344
C           -1.24389721751624       -3.19789884299860       -0.00809753221680
H            3.22681747601126        1.43700595317207        1.03268676970475
H            3.85190603436534        1.06126875711718       -0.58612807463198
H            2.34046945451481        1.99836777100770       -0.38889263301777
H            3.65300230858044       -1.55674701369184       -0.02633089811586
H           -1.28357311822400        4.04828406639166        0.05404301083667
H           -2.87043535692916        3.84459604083778       -0.89861138105209
H           -2.89444041310159        3.78347560709727        0.95312523650081
H           -0.87785951803687       -3.71084928462890        0.88312196023290
H           -0.88255134180795       -3.70473021591238       -0.90497886357384
H           -2.33421668946663       -3.21473757288634       -0.00571828629178
H            1.65741449722948       -3.13985968326491       -0.01956499865687
