72
 energy: -99.448594770627 gnorm: 0.008317165291 xtb: 6.6.1 (8d0f1dd)
N           -0.11548144341545        2.36259882538141       -0.53723870519319
C           -0.96969201129314        1.20810905943556       -0.30516574692923
C           -2.52256182618442        1.37490352213207       -0.38009916235620
C           -3.21905123209590        0.10371688157601        0.11311410881987
C           -4.60570822610679        0.01534867945878       -0.05090289089605
C           -5.33023417202071       -1.09121120430635        0.35583128360221
O           -6.66568873145174       -1.23910688162276        0.23476128095990
C           -7.43381234103315       -0.19080496292891       -0.30628114387102
C           -4.65261139915251       -2.18693413110016        0.95306022259349
O           -5.43084539821792       -3.22334437282456        1.32173482689494
C           -4.83923595117543       -4.33504165047624        1.95234182117436
C           -3.27909819762077       -2.10554724366773        1.10154345116627
C           -2.57483943543423       -0.98042344526034        0.68800058831523
C           -2.73212837047924        1.43411976935555       -1.90663585435894
C           -1.84122175140268        0.29715153499534       -2.42205291548409
C           -0.72395251851102        0.24676628546552       -1.43968318733622
N            0.36760986876985       -0.47724079966875       -1.60062335619022
C            1.53631050941795       -0.35220768014785       -0.75900806515352
C            2.68581076131155        0.35780959774528       -1.49667161112058
C            3.89970269358755        0.47105882053376       -0.61557514546863
C            4.33276678932121        1.69951380519480       -0.14731864676097
C            5.46894125146628        1.79928789788566        0.64289186093439
C            6.18646397167313        0.66640687685007        0.99665126491357
O            7.30153243178679        0.64321783245884        1.75183351036572
C            7.85014119431101        1.85884836464807        2.20615076520867
C            5.73777731370228       -0.60295047109352        0.53845966931101
O            6.48291785982821       -1.65380033217559        0.94005211129257
C            6.10572454784284       -2.95266775573605        0.55280991418971
C            4.61140036065687       -0.67554794609983       -0.26391740832994
C            0.49298511419616       -1.35036922166194       -2.74483062860526
C           -3.09349983065353        2.56717893119766        0.43080522296268
C           -2.59708244374356        2.51281679065843        1.87722353030233
C           -2.86222343374381        3.95860124547991       -0.15833346474274
H           -5.13663476700547        0.83498510090918       -0.50732697120624
H           -7.33905396401189        0.72440027282801        0.28617117987727
H           -8.46507274259416       -0.53635434464808       -0.26992356573520
H           -7.15998950070271        0.01453682477950       -1.34610942967774
H           -4.34251241654899       -4.04987042724935        2.88473655022305
H           -5.65902938810789       -5.01552474161175        2.17424183692609
H           -4.12206019887106       -4.83542812780927        1.29396126442748
H           -2.73284258394716       -2.92029397642319        1.54853219566356
H           -1.50825826363687       -0.99359313668862        0.83907162601671
H           -3.77044485795377        1.30537024708417       -2.19844039029325
H           -2.38200684145217        2.38518828437053       -2.30605799834342
H           -2.39579895936206       -0.64730982262909       -2.42889158792990
H           -1.48549375392902        0.47278354468696       -3.44001186148819
H           -0.67801733459029        0.81028528883050        0.66747082009011
H            0.00961567360065        2.94730787013480        0.28357862979940
H            1.85566346928615       -1.35223788817140       -0.45201797765876
H            1.29026633211237        0.22788425389115        0.12730673540776
H            2.34638343886215        1.35222820570549       -1.78723511777209
H            2.94577037614136       -0.20157465351257       -2.39747623959243
H            3.79353270355823        2.59676651404619       -0.40894437215368
H            5.79018035193712        2.77190613199098        0.97782577935655
H            7.15989837989301        2.38786018249429        2.87034089629452
H            8.12584231252125        2.50994517507810        1.37113295333398
H            8.74544202144198        1.58525236447433        2.76130484648781
H            6.83971603345660       -3.61725198651927        1.00429271944701
H            5.10888755327315       -3.20849330835891        0.92690881227920
H            6.13169600870840       -3.07246836180235       -0.53479209322269
H            4.28447770487791       -1.63257075257939       -0.63970055554748
H            0.70147187220738       -0.78350049988401       -3.65527803148801
H           -0.42855544078968       -1.91223489572301       -2.89389047383391
H            1.30650616267988       -2.05238025985381       -2.57792557209665
H           -4.17797001613231        2.42786368713236        0.46306515946690
H           -1.54142393058811        2.76459302664624        1.94866626423517
H           -2.74916454912778        1.52108967647446        2.29728100543030
H           -3.14939845413552        3.22660046635983        2.48290589524681
H           -1.81118800529778        4.22938035784823       -0.19042909369132
H           -3.28187609733059        4.04341611300786       -1.15719908824598
H           -3.36734917394008        4.68766712398461        0.47126059669839
H           -0.41580951163373        2.90765937145018       -1.34006800439135
