  72
        -99.40646146
 N         -1.8035296529        2.5815516974        2.5701193798
 C         -1.7606457751        2.0823921817        1.4265874726
 C         -2.9181679657        2.0253035584        0.4678353111
 C         -3.4652800207        0.6035835495        0.4317700091
 C         -4.3875748588        0.2286765335       -0.5479047395
 C         -4.9078686669       -1.0549759634       -0.5987667599
 O         -5.8039344138       -1.5010622716       -1.5036113812
 C         -6.3692099201       -0.5998139300       -2.4257967800
 C         -4.4909816725       -2.0207674062        0.3571586242
 O         -5.0433635571       -3.2436805604        0.2284305182
 C         -4.7269717970       -4.2410680579        1.1717738761
 C         -3.5769725941       -1.6416265601        1.3266837840
 C         -3.0749124848       -0.3471426164        1.3629403013
 C         -2.3508974604        2.4107813123       -0.9222645998
 C         -1.4511614733        1.3399969637       -1.5643570214
 C         -0.1223138797        1.2153762301       -0.9226353679
 N          0.4830741321        0.0711652397       -0.6243383020
 C          1.8744666831        0.0594704074       -0.2386667186
 C          2.7869163697       -0.3342419871       -1.4165266616
 C          4.2283330958       -0.2378318738       -1.0020211699
 C          4.9185383391        0.9569243203       -1.1272131003
 C          6.2392060571        1.0605389176       -0.7190301368
 C          6.8962625216       -0.0316003492       -0.1707838953
 O          8.1712747209       -0.0469218490        0.2592013115
 C          8.9457661997        1.1258739315        0.1576290289
 C          6.1957868986       -1.2625940302       -0.0374545124
 O          6.9102668197       -2.2719008228        0.4984279460
 C          6.3148588482       -3.5392375101        0.6412949841
 C          4.8752271799       -1.3412659928       -0.4508020693
 C         -0.1866118964       -1.2017507267       -0.7418470086
 C         -4.0729758965        3.0017432352        0.8457960404
 C         -4.7497436053        2.5998133542        2.1540410050
 C         -3.6091065974        4.4506722164        0.9381165470
 H         -4.7149416040        0.9533499891       -1.2755867978
 H         -6.8722023352        0.2291496729       -1.9191945801
 H         -7.1025940962       -1.1780295014       -2.9847800015
 H         -5.6181081543       -0.2066052780       -3.1186128544
 H         -5.0048741558       -3.9377344606        2.1854725339
 H         -5.3120075616       -5.1122332053        0.8834824962
 H         -3.6624604173       -4.4954013465        1.1450957568
 H         -3.2534690946       -2.3461961828        2.0755274856
 H         -2.3888965701       -0.0847743496        2.1528970024
 H         -3.1820109264        2.6032070055       -1.5995900397
 H         -1.7848135508        3.3379696346       -0.8255006786
 H         -1.9773614456        0.3875337960       -1.5898753933
 H         -1.2795421529        1.6569734442       -2.6013892332
 H         -0.8447867052        1.6447955639        0.9777668689
 H          0.4790879093        2.1100845493       -0.8489604837
 H          2.0146759666       -0.6467483134        0.5838077640
 H          2.1611721095        1.0530133195        0.1123238830
 H          2.5938899069        0.3441053561       -2.2494742783
 H          2.5530598050       -1.3502305937       -1.7364884200
 H          4.4327939121        1.8190368040       -1.5586051170
 H          6.7522968569        2.0006458699       -0.8377089148
 H          8.5140531421        1.9429188605        0.7436842607
 H          9.0588881817        1.4422678648       -0.8835876882
 H          9.9215481391        0.8670054594        0.5640099059
 H          7.0843701572       -4.1761424226        1.0731202558
 H          5.4540235765       -3.5048845226        1.3168012257
 H          6.0066412086       -3.9491063736       -0.3255602903
 H          4.3375111567       -2.2721156583       -0.3602068710
 H         -0.3780986873       -1.4537048278       -1.7871504449
 H         -1.1384751654       -1.1824792693       -0.2050346155
 H          0.4399327243       -1.9770076663       -0.3084664235
 H         -4.8106645247        2.9391072718        0.0418583944
 H         -4.0523643352        2.6912767502        2.9801868444
 H         -5.1131374068        1.5761887747        2.1108001396
 H         -5.5958461098        3.2567204503        2.3396187114
 H         -3.2517485709        4.8245429508       -0.0176434338
 H         -4.4431245568        5.0755241449        1.2455979775
 H         -2.8253502047        4.5583922630        1.6705557169
 H         -0.9539345968        2.5774448043        3.1255562935
