25
 energy: 46.922840145630 xtb: 6.6.1 (8d0f1dd)
C            3.50623106535779        1.80515835510612        0.09215582496135
N            2.79769994384489        0.47705520999904        0.02164157051208
C            3.23247131451914       -0.79071723027038        0.07643159111861
N            2.20193917332583       -1.66710839915273        0.05302945013660
C            1.01015949430308       -0.95699459023106       -0.00847769369577
C            1.41856723064776        0.38577247234625       -0.02961045555152
C            0.41241479065610        1.40390147998242       -0.05288646617439
O            0.62248317736132        2.61064267971888       -0.05685814335040
N           -0.84009720638821        0.84163472905406       -0.05805188697638
C           -1.92999474227037        1.80173082046911       -0.05623663954663
C           -1.20778113300097       -0.54476766057104       -0.06677831048733
O           -2.40046733990475       -0.73804543314195       -0.09050652130436
N           -0.19416300964558       -1.47280801631906       -0.03651724823147
C           -3.80689021906983       -3.55667160171718       -0.10119726244777
H            4.30912579361335        1.81645184466472        0.83572689967831
H            4.00129240389738        2.13906845386778       -0.83232766233880
H            2.77430212375837        2.58261156587980        0.32436662229576
H            4.25557706964003       -1.12750963111133        0.11376677541942
H           -1.45586038873000        2.76826135773359       -0.04937089497535
H           -2.55744577365579        1.71399776316380       -0.94075287005919
H           -2.53980701827356        1.70039952016398        0.83765916894329
H           -4.05270217749980       -3.99428959961422        0.81876698164715
H           -3.96869783189240       -4.03296116378455       -1.01744560256735
H           -3.66674840507581       -2.51632170414681       -0.11970972609994
H            2.20156872243540       -2.67569383512294        0.09418804124654
