25
 energy: 61.734881082959 xtb: 6.6.1 (8d0f1dd)
C            3.23421846182139        1.55386755076647        0.14621033634110
N            2.54902057138009        0.23564883684143        0.01143862359215
C            2.94152180613318       -1.05679972947955        0.05257391352415
N            1.86003926043624       -1.89511023491699        0.04125761937552
C            0.69080699301230       -1.15903093352057       -0.03974865936410
C            1.17591176739001        0.16710456709261       -0.07471668238840
C            0.27734070376648        1.27002425068216       -0.12208879692935
O            0.60044255339297        2.45315029942818       -0.16099144794250
N           -1.02409552690279        0.86075853503482       -0.09344253273960
C           -2.03589090646061        1.91437862674103       -0.05172151347127
C           -1.49022696769046       -0.47508266707310       -0.08748734524856
O           -2.70735241750351       -0.46305281586883       -0.08748339414016
N           -0.58994426093020       -1.55852699110489       -0.06633066206451
C           -2.88306552115000       -3.04114427877828       -0.07853492448467
H            4.04701498047189        1.53436408438835        0.87532213100063
H            3.64906225289274        1.95870963677231       -0.79258064503991
H            2.50696403684851        2.30181063437672        0.50466322681990
H            3.94099485459887       -1.43937940967264        0.13714020058696
H           -1.43962464429601        2.82341988652911       -0.03429367630165
H           -2.67357308961063        1.86913620564268       -0.93181069522667
H           -2.66601558859172        1.83273566590532        0.83675120010277
H           -2.77010425104766       -3.50820348147134        0.85281416458118
H           -2.70390853842273       -3.54542056400745       -0.97919042357215
H           -3.31328035130999       -2.07788432022045       -0.11387593537600
H            1.86425044921445       -2.91125433058588        0.09670637416267
