25
 energy: 62.087951424386 xtb: 6.6.1 (8d0f1dd)
C            3.23197794727445        1.47736300242277        0.13961589010613
N            2.49971452224524        0.18507883890963        0.02010159458281
C            2.87551707395449       -1.12384675521395        0.04525685810003
N            1.76386507769048       -1.93218454467498        0.03085873706089
C            0.60788529905863       -1.17731779521744       -0.03632885111589
C            1.11382767772267        0.14590731652996       -0.05913094309960
C            0.23831921790824        1.27557511864987       -0.09575642233002
O            0.56851507934176        2.45896107907759       -0.12095167747041
N           -1.07935652550636        0.88158516608504       -0.08047498419720
C           -2.07766176729733        1.94928302238762       -0.05225871726233
C           -1.57029801601030       -0.42939159899133       -0.08674202934673
O           -2.79252477437895       -0.41020772418828       -0.09392187968424
N           -0.70057264980835       -1.53957560042995       -0.07109421436731
C           -2.57098875669465       -2.95929559281228       -0.07234778252905
H            3.97413063888623        1.48621333635299        0.95145173173041
H            3.77054165226442        1.78718581394212       -0.77430673625032
H            2.49970055586294        2.27835137370476        0.36557037120828
H            3.87172188553908       -1.53035110124510        0.11410318978116
H           -1.47292737159127        2.85229034408833       -0.03058836109715
H           -2.70879116407653        1.90732352445812       -0.93860777722977
H           -2.71321059834692        1.87685606976283        0.83226210677213
H           -2.44403534511665       -3.43266749503258        0.85887179788369
H           -2.39021538279722       -3.45229799486789       -0.98434463433684
H           -3.13349982256481       -2.06710029141799       -0.09720789127008
H            1.75089740572776       -2.94261350529601        0.07986455564527
