25
 energy: 39.971855674440 xtb: 6.6.1 (8d0f1dd)
C            3.55903109533087        1.78488853057923        0.09241003221171
N            2.81787876492584        0.51732202044637        0.04449429947592
C            3.27351474701444       -0.73429691830815        0.07902514253221
N            2.25287950898025       -1.61598199861475        0.04768477053323
C            1.06070408528057       -0.90826450238061       -0.00073262266465
C            1.44503111858194        0.43994645146581       -0.00433739886611
C            0.42906206149163        1.45555444379339       -0.02592007582726
O            0.63447129287222        2.66291897206886       -0.02352652959301
N           -0.82486414893920        0.89054396462789       -0.04555626274951
C           -1.94605063498842        1.80768980961244       -0.05954842837721
C           -1.16678860826011       -0.49969411015643       -0.05893933031344
O           -2.34481901126768       -0.76651480477340       -0.08753155810564
N           -0.14776666542299       -1.40406686127475       -0.03172151758273
C           -4.04599820423027       -3.73104806672921       -0.11762174412174
H            4.27425801078323        1.81856317888116        0.91781296873952
H            4.13336163671463        1.97950939321986       -0.81748031575760
H            2.84577219334090        2.60386362009953        0.19029141371983
H            4.30397189410265       -1.03315550095486        0.10989482845189
H           -1.51997458300888        2.80592026735795       -0.03812126428021
H           -2.55183595661505        1.67469886546558       -0.95448796120825
H           -2.56724301047857        1.65853120389068        0.81996194514258
H           -4.32201737964560       -4.16275837371600        0.80584225451336
H           -4.24659722974503       -4.17056938383604       -1.05408657918840
H           -3.68824299153990       -2.74314980787280       -0.11488141784754
H            2.27969003747633       -2.62292987373707        0.06955131185414
