25
 energy: 59.628503233422 xtb: 6.6.1 (8d0f1dd)
C            3.29691388603026        1.67944821062964        0.14174242989084
N            2.64157433525639        0.33065478332018        0.00471282231845
C            3.05742289189126       -0.95057825202301        0.06722744266449
N            2.00478394299112       -1.81820193476561        0.05293278542656
C            0.82271274597128       -1.10399045107760       -0.03085915987642
C            1.27359601841212        0.23084324097391       -0.07397310730758
C            0.33642301063188        1.29664248844961       -0.12168012707365
O            0.62277988856667        2.48814336143966       -0.16131026244584
N           -0.94694741405987        0.82308724626609       -0.10061332949090
C           -1.96221319414292        1.87615346558320       -0.04920670732220
C           -1.37317380604197       -0.53438953616090       -0.08327423855441
O           -2.58284357533684       -0.58031507453050       -0.08387020834225
N           -0.42036985508334       -1.56734363164962       -0.05361623223091
C           -3.26981390739904       -3.17910977209216       -0.08542272789322
H            4.17926843310694        1.61840431891400        0.77449026646167
H            3.57520540490596        2.21328910224147       -0.78694612717812
H            2.60848983971247        2.40100941224122        0.61037491693291
H            4.06744318819543       -1.32279753920166        0.13352170590177
H           -1.34418092115275        2.77311062583883       -0.03472081936926
H           -2.60012340942476        1.85336392335827       -0.92733661930196
H           -2.58826979535023        1.78923316692431        0.84170990552437
H           -3.25624248955818       -3.66275339788982        0.84153985137226
H           -3.17708185914931       -3.71211666789128       -0.97906896858856
H           -3.55898106663355       -2.16402095115514       -0.12172123081781
H            2.02014776028458       -2.83519985226795        0.11916306850946
