25
 energy: 12.096505490699 xtb: 6.6.1 (8d0f1dd)
C            3.26319777692969        1.32062506806898        0.11347855695030
N            2.40514441498441        0.13639964075073        0.01875323269749
C            2.73889544238299       -1.22838385919859        0.03707465366342
N            1.56799654873258       -1.95434338405830        0.02209174225196
C            0.47734441390254       -1.15606946797181       -0.01921920628617
C            0.99098844735180        0.16914068812751       -0.02021693945092
C            0.16166936806467        1.30867810298302       -0.04443977130875
O            0.47240722010974        2.50682862942540       -0.06587429478446
N           -1.21894054494195        0.93580358102313       -0.04864758085267
C           -2.17112676258937        2.03877130736999       -0.04994729599844
C           -1.74623206085953       -0.30818079907349       -0.06669543966795
O           -2.96170341344811       -0.42122080434751       -0.08633795697762
N           -0.91111538395684       -1.47158921242374       -0.05284905889025
C           -1.82663901728275       -2.66795043046197       -0.06385730854319
H            3.85157009960178        1.34382735526440        1.04126862431232
H            3.97623544077681        1.42614896325816       -0.72377929139302
H            2.62110200380532        2.21615213940444        0.12452125990800
H            3.71350220063289       -1.68589986599091        0.07292646646641
H           -1.57154568411946        2.95077384036268       -0.02638350090276
H           -2.78276632373628        1.99812553607729       -0.95017178056858
H           -2.81514919616840        1.97513840723687        0.82633464684325
H           -1.77108631542570       -3.28455491905442        0.83261990381953
H           -1.73576109014880       -3.28389564256041       -0.95777955126834
H           -2.80631992961721       -2.22036546613837       -0.08107129590161
H            1.52121738272261       -2.95809269073512        0.04819158944261
