25
 energy: 76.327180956171 xtb: 6.6.1 (8d0f1dd)
C            3.22540884272168        1.16871564180405        0.07369884629046
N            2.23355981529586        0.10760570264045        0.04829736228680
C            2.57550667811121       -1.17035452728856        0.08025025619895
N            1.46069668044597       -1.94984354008957        0.01832788583466
C            0.31599193986694       -1.12523589404119       -0.02731164358548
C            0.86038178213775        0.16885574683289       -0.01181384883944
C           -0.00319476455510        1.34373102954434       -0.05327648141195
O            0.53993661028330        2.44904967506877        0.01605718017159
N           -1.37146093444123        1.08019904324585       -0.11519742676003
C           -2.15600889603060        2.27003365277935        0.06214878237114
C           -2.36816978759331       -0.17678914203346       -0.78934909328025
O           -3.54021803247114       -0.20908799662396       -0.74919346881367
N           -0.95989596109941       -1.41632950615670       -0.03176286765324
C           -1.37792535975808       -2.77006600387998        0.04615223776976
H            3.69279550477358        1.25791965067868        1.06016838792575
H            4.02694725652028        0.96169285408931       -0.64310808835151
H            2.74556590819955        2.11955813027038       -0.15463428372853
H            3.58366341745625       -1.53225571356852       -0.01181417330878
H           -1.50399859069865        3.13543200617287        0.15960369136100
H           -2.77202848041150        2.40357551573893       -0.82082067159978
H           -2.78892898510529        2.16452506955982        0.94048472969208
H           -0.93894377330670       -3.23843064231735        0.93542973151965
H           -1.07384403448135       -3.30259317213916       -0.85902300392038
H           -2.46505512753238       -2.78631531286895        0.12065264063209
H            1.51385242836427       -2.95195035552986        0.04898808001395
