25
 energy: 105.095421643435 xtb: 6.6.1 (8d0f1dd)
C            3.28324344775998        1.18519335426855        0.04850198758243
N            2.31668088283689        0.10405972449724        0.02893931514149
C            2.67914905824388       -1.17191834929188        0.00628860808392
N            1.59612859361178       -1.95842871139289        0.01661252305540
C            0.43339419150371       -1.13722393707584        0.06805613391019
C            0.95192426578048        0.19847256070628        0.06078902211159
C            0.17641859136573        1.44250499520077        0.05090149322396
O            0.74750798294712        2.54502010279352        0.01046836524798
N           -1.14538279390141        1.22486476365971        0.07036423240741
C           -2.02316180617358        2.33751659911424        0.14354728312993
C           -3.51915261326033       -0.57336527956018       -1.25728929318244
O           -4.38815547904881       -0.04331882827580       -0.77101315394589
N           -0.76698758612014       -1.52326294231602        0.14724741785185
C           -1.24947885483841       -2.85113272630199        0.12294976323713
H            3.75195660830418        1.27842406485552        1.03161730213643
H            4.07204148943524        1.00254495680309       -0.68415264889957
H            2.75962806179814        2.11556039741556       -0.17954079580797
H            3.69296561152885       -1.52295013712291        0.00030300826442
H           -1.47526438267118        3.27476139993726        0.25016667354904
H           -2.66227193644689        2.39672696410483       -0.75249656976791
H           -2.69385535856839        2.20893890576818        1.00301962798783
H           -0.84229252323181       -3.39064094635061        0.97952086888230
H           -1.01308396129795       -3.38312654631355       -0.80359190894403
H           -2.33299287769013       -2.81996783793242        0.22765189864195
H            1.60007596482758       -2.96387613484434        0.02334327255847
