25
 energy: 105.128394148965 xtb: 6.6.1 (8d0f1dd)
C            3.29779323629002        1.19229368428956        0.04427915108112
N            2.34114753270623        0.10535551312294        0.02993574493122
C            2.70679550586676       -1.17263602732165        0.00100768588271
N            1.61702351825004       -1.95249541514847        0.01679673998422
C            0.45061434944087       -1.13385137909607        0.07687279103936
C            0.97738410254054        0.19900608826078        0.08505573758579
C            0.22170826045864        1.45548126509237        0.07416348825071
O            0.78947090115495        2.56008248209586        0.00725735828622
N           -1.09301189658659        1.22527706319607        0.11349512051571
C           -1.99988117983740        2.31512099542908        0.13212586603160
C           -3.74649045023364       -0.69636001533073       -1.17844291700018
O           -4.56601152839181       -0.08666448619670       -0.70098889205956
N           -0.75191506990688       -1.52767789641716        0.18787288787773
C           -1.26423348692219       -2.85302164311966        0.12386380671386
H            3.76274254252939        1.28446660154179        1.03109210599045
H            4.08198803781709        1.02213776903371       -0.69566274976752
H            2.76282056530656        2.12046328054422       -0.17147774435705
H            3.72369072245351       -1.51713935769973       -0.00085957282137
H           -1.49918730788146        3.29361543605485        0.22873511281843
H           -2.62627080854235        2.32465954433197       -0.77301705294316
H           -2.68342730691329        2.18267614514037        0.97921674957713
H           -0.88664017523060       -3.42742256803561        0.97985078650062
H           -1.01749634002325       -3.37339109296568       -0.81097325265651
H           -2.35723516506440       -2.77630209912135        0.19848900506176
H            1.57825982243303       -2.95620646231534        0.01318396961890
