25
 energy: 103.347855703585 xtb: 6.6.1 (8d0f1dd)
C            3.31316426486335        1.19345338673561        0.04583040856630
N            2.36905180083960        0.10240452024471        0.03685548805043
C            2.71296258051578       -1.17932428743634        0.02272177811795
N            1.60249111015817       -1.94090562305954        0.04429904249324
C            0.46293587853433       -1.10210380379568        0.06895986892939
C            1.00512066281863        0.21997626368175        0.06292263219298
C            0.25560626784026        1.49496851526237        0.06492149511670
O            0.84550237553924        2.58839062087590        0.02445748572462
N           -1.04606594377261        1.28187941586351        0.10751482476730
C           -2.00150458052501        2.33076343708511        0.12037948905036
C           -4.02883834578256       -1.12722875812262       -1.02856853504796
O           -4.21632481271905       -0.04473960362775       -0.75806443097884
N           -0.76988779603229       -1.41861746353730        0.05374619945899
C           -1.28324871259105       -2.75068581236106        0.08448933026681
H            3.77052504625322        1.28204503816040        1.03272854945161
H            4.09379417200020        1.01887322687455       -0.69417736011010
H            2.76905212646144        2.11819633855857       -0.17379258180800
H            3.71490474317344       -1.55628803136709       -0.00525683179027
H           -1.55360571998732        3.33115904116242        0.18099090743640
H           -2.60781841890612        2.25563822951336       -0.79082817183794
H           -2.67492523105197        2.17680381795016        0.97046029231484
H           -0.94961301441942       -3.33937539111866        0.95054343668024
H           -1.02529939756719       -3.30619544186067       -0.82435174859540
H           -2.36967929264723       -2.65520843124213        0.11899878515301
H            1.58174994683530       -2.94656103697679        0.02597978352690
