25
 energy: 104.853666361860 xtb: 6.6.1 (8d0f1dd)
C            3.30637416785757        1.19690502477400        0.04477231191212
N            2.35713221816012        0.10686963502492        0.03089140378407
C            2.72128707602883       -1.17237176562369        0.00182363569081
N            1.62787277626691       -1.94883774745735        0.02128193869293
C            0.46371504754996       -1.12607772270133        0.08649712401126
C            0.99510111026366        0.20465640248155        0.08243274541916
C            0.24347095570400        1.46457327966685        0.07076962621959
O            0.79396802252115        2.57755009437872       -0.00593899871462
N           -1.06761577250517        1.22871212666637        0.13904241518613
C           -1.98979059600161        2.30171121531603        0.12878129849014
C           -3.86306549278584       -0.77676294511701       -1.12300904210627
O           -4.64937138176846       -0.08052081967444       -0.71058941850042
N           -0.74336423888162       -1.50566700731866        0.17915812729583
C           -1.26411804659074       -2.83132452672105        0.11877101505682
H            3.77611652754779        1.28889844401650        1.02673597220508
H            4.08626610341739        1.02557995563943       -0.69912858497541
H            2.76806891592915        2.12184551629136       -0.17306193358181
H            3.73396453979946       -1.52755223403651       -0.01335679884432
H           -1.51843444142863        3.29609893285352        0.20895893429016
H           -2.60776511698991        2.28475203083613       -0.78032851331154
H           -2.68050333006858        2.16573569427189        0.96887805750986
H           -0.91214764016457       -3.43224234608949        0.97255941405715
H           -1.01656510593880       -3.35339397742583       -0.81543050413591
H           -2.35749306865362       -2.74535925849181        0.17734445012170
H            1.59545003203224       -2.95276332873607        0.01893785227574
