25
 energy: 104.263461400778 xtb: 6.6.1 (8d0f1dd)
C            3.31193962089081        1.19653642784709        0.04686520072436
N            2.36814747439590        0.10269624799670        0.03566131824921
C            2.72752489333967       -1.17763173331592        0.01306188873049
N            1.62785782736196       -1.94950689774628        0.03130871131664
C            0.47165780253526       -1.12133100200731        0.08057104771066
C            1.00770645828639        0.20239354114374        0.08525032421472
C            0.26114404839330        1.47045305632283        0.07861023637446
O            0.81697473954218        2.57814320499380        0.00783283577384
N           -1.04551006501350        1.23142655445601        0.13489558496510
C           -1.98905559005638        2.29172299716891        0.12180816485410
C           -3.89671787701211       -0.88803202615552       -1.09744742465942
O           -4.55740540037844       -0.08452554336502       -0.66930075468719
N           -0.74365405776415       -1.48438667208717        0.15001494026694
C           -1.26701541483164       -2.81077607291957        0.10790146163737
H            3.77337322109235        1.28545410189634        1.03284801939195
H            4.09068969692322        1.02762200533846       -0.69659310259801
H            2.76865509352965        2.11863658451130       -0.16853931352769
H            3.73704516257828       -1.54252702218563       -0.01343978869940
H           -1.53826998271097        3.29624390087783        0.18760543757516
H           -2.59907553689828        2.24824706059754       -0.78667976434309
H           -2.67331167703040        2.15438802034923        0.96454032145894
H           -0.94139823412317       -3.42341741522624        0.96472187040793
H           -1.01381135596050       -3.33819278641061       -0.82092379081393
H           -2.35602241784207       -2.71478061473224        0.15353071413729
H            1.61534197446688       -2.95305804314031        0.02657107088215
