25
 energy: 106.019740281785 xtb: 6.6.1 (8d0f1dd)
C            3.25207416119922        1.17190345795972        0.05754863694044
N            2.26865399178436        0.10143363956870        0.03447325420569
C            2.62674496810142       -1.16852716040242        0.03045780681579
N            1.54429722648113       -1.95908958252187        0.01146467526918
C            0.37570604556016       -1.14055515440911        0.04004063258793
C            0.90230417435191        0.18903832107298        0.03209345136670
C            0.10303310781121        1.42072734413604        0.02636576171237
O            0.68372123566698        2.51364676146000        0.02348160383304
N           -1.22381848442310        1.19783556442803       -0.01254592718760
C           -2.06081544709263        2.33019439284262        0.13170649432376
C           -3.09185186415354       -0.42984674485703       -1.17551207651007
O           -4.07287167783399       -0.02333814620393       -0.79016190167660
N           -0.84470990245786       -1.48313955464408        0.08361507941126
C           -1.29632085736071       -2.81888871676260        0.09787140675899
H            3.71151525962088        1.25885154316690        1.04574889560132
H            4.04549191255243        0.97184872568099       -0.66704504364606
H            2.76261495610652        2.11725308545430       -0.17550096903772
H            3.63698565521437       -1.52515010829506        0.00421893524376
H           -1.44802860632319        3.21368511745432        0.25742466124644
H           -2.69422176081187        2.49737720067131       -0.73935367928669
H           -2.72552442100013        2.19788364592231        0.99154505767508
H           -0.83261463945551       -3.30836121482584        0.95624154542576
H           -1.03049618282731       -3.34307459602387       -0.82163290215082
H           -2.38126243686481       -2.84778971618710        0.21048012122063
H            1.60458472600717       -2.95985368527434        0.05696596446438
