25
 energy: 105.522151377348 xtb: 6.6.1 (8d0f1dd)
C            3.26412473065188        1.17344970363154        0.05277117890020
N            2.28485387089556        0.10188823936776        0.03092196912330
C            2.64364061817820       -1.16993229252687        0.02125272810591
N            1.56194885547590       -1.95906003625254        0.01375307388808
C            0.39436673481952       -1.14013017143313        0.05174536952443
C            0.91848628853721        0.19285556174069        0.04053921235299
C            0.13022571072201        1.42961739528103        0.03382610321951
O            0.70649432311188        2.52662206698828        0.01999343723744
N           -1.19370587525461        1.21041430870146        0.01017354852087
C           -2.04361154578244        2.33687502212858        0.13984762303759
C           -3.24064395255299       -0.47126922923709       -1.20083257223136
O           -4.17633812116079       -0.02538137833399       -0.75265132983630
N           -0.81929764107237       -1.49723662291484        0.10448749638538
C           -1.27620519332105       -2.83175196811521        0.10861687923787
H            3.72570899543728        1.26010547327246        1.04028585390215
H            4.05484356876358        0.97695593029139       -0.67656720507474
H            2.76306293696089        2.11212057817458       -0.17977489796310
H            3.65410114168676       -1.52757693456138        0.00405163829574
H           -1.45226330084516        3.23646204052266        0.26319688786481
H           -2.67862275631277        2.46699784755766       -0.73794651602467
H           -2.70997714850806        2.20642138600444        1.00126980080278
H           -0.82247360695317       -3.33848838002825        0.96117222391698
H           -1.02264481819592       -3.35557932648971       -0.81495171818606
H           -2.35737189909430       -2.85394621861899        0.22976489954197
H            1.61696224863843       -2.96048657675164        0.05295388282110
