25
 energy: 105.173350729611 xtb: 6.6.1 (8d0f1dd)
C            3.29136147655030        1.18860085710010        0.04385437319900
N            2.32911454500922        0.10455743122978        0.03065280627318
C            2.69414962104790       -1.17249224261841        0.00197450090642
N            1.60895751547129       -1.95663188891406        0.01430467835092
C            0.44588622110074       -1.13705643159945        0.07340580330767
C            0.96490924000791        0.19798087226569        0.07869935745967
C            0.19802079526462        1.44818754775970        0.07016229609804
O            0.76863667888664        2.55085475614542        0.01030623758763
N           -1.12024032925308        1.22431228800316        0.09027233348668
C           -2.01048480782162        2.32795353339817        0.13789242268551
C           -3.66529618932956       -0.61504131557721       -1.24675970907058
O           -4.47155983743821       -0.02049848000068       -0.72453734850239
N           -0.75059615239144       -1.53417530584395        0.18935740611494
C           -1.25264735100556       -2.85908692511699        0.12414006214633
H            3.76447970155654        1.28374000439585        1.02362708131415
H            4.07418155616330        1.01223489649953       -0.69681767849626
H            2.76255799863853        2.11819018099035       -0.17575542516162
H            3.71074821054253       -1.51724355201867        0.00174082513149
H           -1.48556659332123        3.28671952424394        0.24358985957813
H           -2.64608090033537        2.36271172969840       -0.76273271782147
H           -2.68624108215280        2.19856152854652        0.99247275993737
H           -0.86405623265582       -3.41476390060171        0.98225134623440
H           -1.00918946475623       -3.38731551606419       -0.80584537136871
H           -2.34270391098964       -2.80182261192892        0.21069214200831
H            1.58914343544571       -2.96173988987687        0.01399100968216
