25
 energy: 104.053845143385 xtb: 6.6.1 (8d0f1dd)
C            3.31334803689432        1.19532094957584        0.05311699445586
N            2.37356793409889        0.10234732327763        0.03752048831382
C            2.72909920700668       -1.17876302770119        0.01869221837383
N            1.62350639842270       -1.94633299767209        0.03436801283772
C            0.47561279813436       -1.11502361271868        0.08012999084575
C            1.01355570457672        0.21067979715310        0.08308431434301
C            0.27254330232501        1.48625373303593        0.07935389645704
O            0.83182484472107        2.59247706009062        0.00911760674470
N           -1.02932323798232        1.25009012035559        0.13180600678970
C           -1.99085178048473        2.29755613569514        0.12247386989137
C           -3.83894934959773       -1.00731184344597       -1.01761513963181
O           -4.45218925005980       -0.10974885475233       -0.72971304983887
N           -0.74637368603594       -1.46239414834676        0.11641948357627
C           -1.27263022365930       -2.78919736435291        0.09840684549778
H            3.76514360551900        1.28473761007102        1.04226309847198
H            4.09666183800559        1.02081284744346       -0.68371429113920
H            2.76991950941567        2.11572105957575       -0.17380177230748
H            3.73759781614234       -1.53938182826926       -0.02883973528955
H           -1.54908532516841        3.29699951481701        0.17418103454343
H           -2.58773691845472        2.22902751465961       -0.79043667244717
H           -2.67085930403620        2.15996654493354        0.97008567015994
H           -0.95110076622949       -3.40028600506071        0.95633764399300
H           -1.02211895929083       -3.32376729667826       -0.82534350084480
H           -2.35654750045810       -2.68262633308604        0.14038134875182
H            1.61084787954291       -2.95056918117664        0.02791675924741
