25
 energy: 105.784646365654 xtb: 6.6.1 (8d0f1dd)
C            3.23182354700683        1.16612132763446        0.06419290151858
N            2.24053931728609        0.10521993255345        0.04474053505571
C            2.59597983543352       -1.16444650258698        0.05255478277841
N            1.51038379520438       -1.95625177770770        0.00885681492434
C            0.34319863696240       -1.13772770944018        0.01045808625541
C            0.87466806076554        0.18152908509885        0.01131859031907
C            0.05324906561162        1.40097117184522       -0.00464757790280
O            0.63651998551035        2.48877114940212        0.03069510353844
N           -1.27979687918789        1.16034030653175       -0.05039371376372
C           -2.09865824934708        2.30510541554157        0.10082161370553
C           -2.79060594217113       -0.33397093634688       -1.04165320649003
O           -3.86849069394225       -0.08225208043826       -0.79979326824989
N           -0.88955342691393       -1.45689106856017        0.04363617843892
C           -1.33629104598588       -2.79361769198753        0.07342673187567
H            3.68361637966196        1.25135203329559        1.05471383190798
H            4.03049416668055        0.95341715663859       -0.64892473901245
H            2.75914511918179        2.12127785846082       -0.16716409196003
H            3.60802956287237       -1.50846681020042       -0.01138844056388
H           -1.46281655673680        3.17608755162261        0.21186985695102
H           -2.73285358235906        2.45049107767157       -0.77682424003441
H           -2.75535473997716        2.18009269481532        0.96472088086249
H           -0.87903621353596       -3.25872157123678        0.94887515720833
H           -1.05087212351105       -3.32187128232063       -0.83851292950138
H           -2.42607385305356       -2.82283737396259        0.16538326323082
H            1.56240050618722       -2.95728574971183        0.05663561486595
