25
 energy: 14.083353771530 xtb: 6.6.1 (8d0f1dd)
C            3.24806626142444        1.18233927000516        0.07057303058135
N            2.26724069182402        0.12884868870300        0.04156874758817
C            2.57457237759711       -1.21212997755401        0.07586510136167
N            1.39846763209128       -1.93393360454933        0.00818995712214
C            0.32178035078801       -1.08344524643950       -0.03387241468188
C            0.86512273288747        0.19262758651872       -0.00324410789349
C            0.03373188899090        1.31780044829346       -0.04458409021333
O            0.47165058458403        2.47430471049745        0.00158245721582
N           -1.40178194854117        0.98942299136196       -0.12122459208944
C           -2.19312601744250        2.20222379809337        0.01123053244468
C           -2.07689597956590       -0.21439900502782       -0.39694940331739
O           -3.25901403010916       -0.35954002063708       -0.57731164401780
N           -1.05451390200523       -1.31893793185164       -0.10910413752812
C           -1.43874558998766       -2.70404297759765       -0.00411116533226
H            3.73873761398611        1.26740839695003        1.04847928817325
H            4.04087541351404        1.00110883278451       -0.66719531914486
H            2.73260743869779        2.11809335308883       -0.13461301997109
H            3.57600848600521       -1.58890352302286        0.01455581822560
H           -1.55636120269481        3.08783400972089        0.08807183273492
H           -2.79943252956009        2.29091170420827       -0.87859688456550
H           -2.82485657748172        2.12730597603065        0.89283370342412
H           -1.02885261908830       -3.19461311575639        0.89320636760889
H           -1.10399489401506       -3.24716148849796       -0.89363201382886
H           -2.52055759524595       -2.70930803184505        0.04716843468183
H            1.44303356105168       -2.93888618159672        0.02808913722550
