25
 energy: 23.321978237267 xtb: 6.6.1 (8d0f1dd)
C            3.24164659483662        1.17916998556992        0.07464268839183
N            2.25522709359583        0.12935721622332        0.04430671387320
C            2.57305977618499       -1.20394553504026        0.09213327127829
N            1.40407875475670       -1.93778317064362        0.00867902860901
C            0.31876662046755       -1.09285654734281       -0.04807712820541
C            0.85761411558369        0.18417580739821       -0.01422494634210
C            0.02064105807520        1.31494858933892       -0.05790719367284
O            0.48053479906756        2.46307409225245       -0.00286802820507
N           -1.41240100038088        0.99509342387208       -0.13346721683307
C           -2.18572488333809        2.21693102999122        0.02565135636780
C           -2.12333820840735       -0.19566709948834       -0.46956938129700
O           -3.29991020799139       -0.33978353493107       -0.67484602895438
N           -1.05231995577999       -1.33271783635454       -0.11118112133015
C           -1.42661809438669       -2.71849287742191        0.00868817989905
H            3.72505343166588        1.26738924343714        1.05649522635648
H            4.04018417040558        0.98650380821093       -0.65477598866566
H            2.74098153064297        2.12083359396849       -0.14115210768542
H            3.57465737976519       -1.57219560654786        0.00335764616570
H           -1.53579109319495        3.09177501110030        0.11178549441337
H           -2.79258004565187        2.32951558902967       -0.86075114772115
H           -2.81412027611938        2.13788008694209        0.90901871850789
H           -1.00055958370407       -3.19774094156753        0.90583381171323
H           -1.09655570337338       -3.26549996325569       -0.88067392819597
H           -2.50810559451112       -2.73839294074696        0.07169172719548
H            1.46202495471585       -2.94137447607868        0.03401731555747
