25
 energy: 97.063098454147 xtb: 6.6.1 (8d0f1dd)
C            3.22392771878555        1.16535444076813        0.07076825159698
N            2.23267949471549        0.10589595808857        0.04742949334876
C            2.58289078758163       -1.16582207662476        0.07043345651972
N            1.48420886998957       -1.95247080349171        0.00994439851024
C            0.32828064049008       -1.13319573796181       -0.01180952478185
C            0.86467481373805        0.17285000737891       -0.00388817053916
C            0.01993211421829        1.37282143394990       -0.03633011493150
O            0.58937864428528        2.46673684082514        0.02940038139218
N           -1.32596198296371        1.12580742645162       -0.07955032783606
C           -2.12997867862547        2.29058395645152        0.08063301266586
C           -2.56673252748174       -0.23764931948824       -0.90671860108344
O           -3.70341786249683       -0.15074174882297       -0.77911451708929
N           -0.92811212978348       -1.43944951450562        0.00947267050699
C           -1.35719373351790       -2.78428289374942        0.06013188402739
H            3.68226485228916        1.25377350173502        1.06040248649867
H            4.02464407385425        0.94968993483344       -0.64103582133307
H            2.75150797800150        2.12000053740880       -0.16114332239564
H            3.59440012173219       -1.51223920683385       -0.01613851551719
H           -1.48488058553666        3.15801796027130        0.18391139805960
H           -2.75228164392888        2.43163265540213       -0.80079683741563
H           -2.77378757890993        2.17418344123320        0.95238071029369
H           -0.90920808171710       -3.24650576261848        0.94510646280645
H           -1.06180269245667       -3.31483379733013       -0.84841036580700
H           -2.44623876555625       -2.80895061288058        0.14363065918085
H            1.53814879378362       -2.95425257988604        0.05396401366098
