25
 energy: -42.132367008197 gnorm: 0.002111427191 xtb: 6.6.1 (8d0f1dd)
C            3.22151623465577        1.20144356953845        0.02583232255516
N            2.23502719410589        0.15903197869662        0.01143409509626
C            2.45792495859170       -1.17660914010214        0.00583781430549
N            1.35119960567204       -1.88409094571184        0.00824715350396
C            0.34639385710242       -0.98249044882665        0.01789740683746
C            0.88233696012979        0.31686216496786        0.02035973678413
C            0.04207277450229        1.48980994528885        0.00237707258545
O            0.42513017834030        2.63793463076562       -0.02067502556373
N           -1.31089719502878        1.14888879468083        0.00710880522082
C           -2.28004950673301        2.23001412331698       -0.01121194631406
C           -1.86147524820737       -0.12755023138358        0.01548283904904
O           -3.05298278565827       -0.29568191138935        0.01657505591741
N           -0.97888152195914       -1.21257367138881        0.02017378377909
C           -1.50093194165340       -2.55736639583689        0.01213859379989
H            3.71868904281099        1.23829187664860        0.99775488664502
H            3.97408839440768        1.01737689202833       -0.74163372415574
H            2.73308549263785        2.15846048046279       -0.15748423076308
H            3.43984584702845       -1.60769719661067        0.00021627543895
H           -1.74216290945388        3.17566647298608       -0.01144214170077
H           -2.90841012747095        2.15061154922692       -0.90010967754923
H           -2.92949521572622        2.16139541428809        0.86328145650560
H           -1.13687578172421       -3.09902460440296        0.88612099934326
H           -1.16212026843318       -3.07870739189559       -0.88437159991372
H           -2.58845733389302       -2.50680210059086        0.02701308516654
H            1.78586081005628       -4.73895531315666       -0.17975141867319
