72
 energy: 55.118258358280 xtb: 6.6.1 (8d0f1dd)
N           -0.88431515619514        2.85411122280605        2.14288883458608
C           -1.50847097074768        1.73543568318261        1.98259024880546
C           -2.73919335688431        1.63878144522204        1.30387963918391
C           -3.30462467868880        0.35358311772182        1.02795009266432
C           -4.20592315501642        0.13785762198157       -0.04578332013650
C           -4.70318016418889       -1.11263339808118       -0.34735865548162
O           -5.55562162579686       -1.38902655371890       -1.38292352627831
C           -6.04064278974285       -0.32512204006288       -2.16100071167323
C           -4.32714841449771       -2.23207426518602        0.42686147019534
O           -4.86778176882808       -3.43188550978149        0.04959365776370
C           -4.58723695633484       -4.56556564966139        0.82350258030132
C           -3.47947613258489       -2.02944409925588        1.50470398217000
C           -2.97601848607690       -0.77742503088202        1.79100065178602
C           -2.12460857102136        2.34307252412417       -2.47595157483050
C           -1.53416351334737        1.07430960711586       -2.00511532459181
C           -0.25673852034883        1.17211880632096       -1.29096785582510
N            0.31829303666364        0.17097281791354       -0.61970267860649
C            1.68961937364452        0.27711731484111       -0.17082933694768
C            2.67860544135236       -0.26438871209082       -1.22837279227909
C            4.09836539966115       -0.18041125410576       -0.74601724112646
C            4.84400444256404        0.96902908251651       -0.92569374308273
C            6.15984359831527        1.03858444665887       -0.48865926483272
C            6.75105422881003       -0.04386009315082        0.13704894288473
O            8.03416351489533       -0.09190422517315        0.58637345880930
C            8.87035223484668        1.01189818552624        0.34962584821393
C            5.99390536805188       -1.21942941698895        0.34154325735807
O            6.65241701343115       -2.23353631888837        0.97022970489593
C            5.98329462016558       -3.45129396973853        1.17374306198530
C            4.68473940199761       -1.26907872383936       -0.10001910340735
C           -0.28698311912754       -1.13646310856961       -0.61026561930392
C           -3.48105775114450        2.90144753615564        0.93197399835268
C           -3.80964928208366        3.65827235410712        2.21741223037917
C           -2.70847946499922        3.82603252799090       -0.00939465976911
H           -4.50375844617616        0.97698190413409       -0.65484196073452
H           -6.58545342055690        0.40771090870617       -1.55733724079050
H           -6.72270189005553       -0.76539032328761       -2.88746677834007
H           -5.22842431674308        0.17541307299830       -2.69703224283776
H           -4.92476633619411       -4.45732014304719        1.85948981126371
H           -5.14700130478645       -5.37290006597601        0.35577740925154
H           -3.51928662471047       -4.81534354513108        0.81670650934049
H           -3.21501457592036       -2.85035553708209        2.15262495764520
H           -2.35591528098510       -0.65895292401093        2.66284066769865
H           -3.07997880208340        2.29563819743911       -2.95974835098274
H           -1.44188003426690        3.09888465582593       -2.79234399959342
H           -2.27147211931624        0.51320061246071       -1.42649353323518
H           -1.34358555006632        0.46443326880315       -2.90978485765432
H           -1.05678717184494        0.78003767897449        2.31092937792392
H            0.24494818969732        2.12705070500019       -1.27503327583249
H            1.81324121099233       -0.27758560281926        0.76414138935532
H            1.91339376203795        1.32643572647582        0.03386333486251
H            2.56364448420315        0.32129738147671       -2.14207516137272
H            2.42940904451915       -1.30257374924435       -1.45832120476332
H            4.40943873456214        1.82282914985212       -1.42287295937288
H            6.71656006314779        1.94822389975731       -0.64766741488958
H            8.51870084971416        1.90628866189540        0.87601551336818
H            8.96134336816945        1.23014029466683       -0.72016846821668
H            9.84494188455920        0.72497545386297        0.73977812662188
H            6.70717223238831       -4.10539028417759        1.65680064092941
H            5.11534912012287       -3.33100049676111        1.83050428605265
H            5.66579741938930       -3.90296308579039        0.22754186824621
H            4.10247011749821       -2.16689062466884        0.04034506387588
H           -0.39888946438915       -1.52906648123108       -1.62744265508362
H           -1.27851929492520       -1.09165164399586       -0.15161346854509
H            0.33563592217236       -1.81790887826873       -0.03371882889853
H           -4.43692178768719        2.64848576411131        0.46293720180346
H           -2.89361022501597        3.97670056822771        2.68812774598748
H           -4.35376195072044        3.03728293842309        2.91898775549214
H           -4.40598110592645        4.53196157638642        1.98792644458731
H           -1.74893778581963        4.09343075306147        0.42035146142246
H           -2.54411629815743        3.27675757300805       -0.96140995524173
H           -3.26142197068517        4.74083365120511       -0.22285114479658
H           -0.02183358059725        2.79085241326520        2.68045991027907
