72
 energy: 65.239360092777 xtb: 6.6.1 (8d0f1dd)
N           -1.07720507187456        2.90921541876040        2.19099896410167
C           -1.44263894003580        1.85987814202063        1.54681142004978
C           -2.65514747053127        1.77256485600333        0.81419344359129
C           -3.25455712445009        0.46054315994549        0.70765376376966
C           -4.23581645273068        0.17131784405904       -0.26648239214697
C           -4.76942216496381       -1.08735144054130       -0.41674939105628
O           -5.67272463376685       -1.43552872543201       -1.37678460862619
C           -6.18660019759768       -0.43927927816523       -2.22038931758708
C           -4.35964338809637       -2.12857153783366        0.43890020885003
O           -4.92597952879265       -3.34877081371985        0.19515381555988
C           -4.61652460869865       -4.39572763583374        1.07071383956721
C           -3.46666752134549       -1.83261114441044        1.45240290237441
C           -2.92525765924165       -0.56722657194675        1.58695167490960
C           -2.25376380767748        2.22119019768420       -1.89812564868168
C           -1.49986869855355        0.94856994279806       -1.84877108810659
C           -0.19705848818280        1.07763383145375       -1.20281115792026
N            0.43267143162170        0.05221787298171       -0.62562708168302
C            1.80722718245235        0.14022386195479       -0.17532439430721
C            2.78581132657809       -0.37510427396207       -1.25503524761716
C            4.21147709051159       -0.27912675771385       -0.79300340069150
C            4.94518639928070        0.87655595250615       -0.97644284829501
C            6.25760425422643        0.96171625891350       -0.52867403300710
C            6.85496650057227       -0.10897733213226        0.11264233581452
O            8.13588439337357       -0.13595549976501        0.57358823760355
C            8.95210935014772        0.98213611723120        0.33660952693592
C            6.10976557351120       -1.28991627191146        0.32342048706172
O            6.77507655834644       -2.28992379019567        0.97067377434526
C            6.12108979247304       -3.51591211154780        1.17207098220100
C            4.80423310382394       -1.35596445493091       -0.13094192325614
C           -0.21059867072710       -1.23806512672016       -0.61132760338277
C           -3.59951883104724        2.97759242655897        0.75197278408507
C           -4.09966831146462        3.31186046850662        2.15090597607358
C           -2.94415972368027        4.20381586181401        0.13959515983224
H           -4.56157234474935        0.95903340075792       -0.92483161430939
H           -6.69206166526171        0.35338279152520       -1.65999184760441
H           -6.91430631698429       -0.93143224634244       -2.86544193068585
H           -5.40033340882915       -0.00352581098942       -2.84504052561636
H           -4.89864685314078       -4.16754596484752        2.10273447871601
H           -5.20201407335479       -5.24588186310110        0.72327253005935
H           -3.54973668108709       -4.64634017890863        1.03648952352374
H           -3.16848381126365       -2.59365009681275        2.15301040742765
H           -2.26408457341508       -0.37148295349658        2.41163439705845
H           -3.16127458014343        2.22585947242663       -2.47956729310373
H           -1.57903688467848        3.01021586353773       -2.13357631204148
H           -2.16473284967953        0.17832472397079       -1.45068871689361
H           -1.32165525891508        0.86206262615505       -2.92891620617314
H           -0.86737728710273        0.93757478531666        1.56750892805262
H            0.38511685856049        1.99152997770126       -1.32605984129775
H            1.94985604190770       -0.42282932624236        0.75221601449780
H            2.03942361267940        1.17449046517746        0.05021575868585
H            2.64138446923574        0.21912454270440       -2.15474364671767
H            2.53656916076359       -1.41068903716347       -1.49341444990500
H            4.49558154776447        1.71747006426549       -1.47966405040566
H            6.81064624673116        1.87286333147818       -0.69223680997030
H            8.56928249044518        1.87173313852349        0.84566985913109
H            9.05730976137300        1.19167636283796       -0.73400948470077
H            9.92818343751224        0.73035711025331        0.74455567766657
H            6.84444295466747       -4.16628291000461        1.66396437637239
H            5.24633376559331       -3.40032443576310        1.81863611896208
H            5.81463652241964       -3.97474811486743        0.22549172288001
H            4.22828704846375       -2.25652380138878        0.01716620194637
H           -0.35441114400311       -1.61315479805037       -1.62862614377567
H           -1.18971818511334       -1.16369542746156       -0.13884887118453
H            0.38680430764361       -1.95200538509669       -0.04929434298813
H           -4.51095999853793        2.75052864012510        0.18723682761370
H           -3.24960247525334        3.56706280283353        2.75771448479747
H           -4.58302409801357        2.46133206584107        2.59748171309159
H           -4.80742108125155        4.13896468928020        2.11463768974389
H           -2.05606749993137        4.40469619664942        0.72397602429684
H           -2.70451277080044        3.98122974129061       -0.89253941439447
H           -3.59382676900310        5.06995758426940        0.16414471070866
H           -0.22095011553311        2.76125000133056        2.73716312512269
