72
 energy: 22.441734635191 xtb: 6.6.1 (8d0f1dd)
N           -1.29669019157120        2.85540902732871        2.26108775310073
C           -1.45912309751324        1.99865990464560        1.32994932950542
C           -2.64296452053231        1.91374423825213        0.38038216762559
C           -3.27407652762361        0.55068999714568        0.51313902520637
C           -4.27186246934181        0.20979209589192       -0.40796471214381
C           -4.81212029250332       -1.05503857634765       -0.46469647834544
O           -5.73895489473311       -1.46514900704963       -1.37523028879546
C           -6.28406041207783       -0.51823585601841       -2.25681412700406
C           -4.38125707711917       -2.04138789632959        0.44582084312611
O           -4.95894392911704       -3.26737486289228        0.29329172997825
C           -4.63848585047449       -4.26224546502952        1.22656359159506
C           -3.45905258728149       -1.68609639424321        1.41110326834779
C           -2.92018495457083       -0.40224152997754        1.45263845431237
C           -2.27962144721096        2.16677629848365       -1.39631532338474
C           -1.39453898444795        1.03674344527247       -1.80734013392069
C           -0.11307727683270        1.15908504167488       -1.06592824123075
N            0.51602244923341        0.00260934238414       -0.59679491548515
C            1.88873350608429        0.05360235118907       -0.17095120329547
C            2.85712109270134       -0.44940105601467       -1.26885802406870
C            4.28119414676823       -0.34984156723551       -0.82389017667414
C            5.00830399571487        0.81053927767669       -1.00868508784017
C            6.31917647663852        0.90669919339061       -0.56083763602942
C            6.92278709794824       -0.15486122275370        0.08951715513987
O            8.20317260652232       -0.16834453791372        0.56075047151126
C            9.00710899109087        0.95846533029246        0.32947550715084
C            6.18522031194180       -1.33967390354028        0.30338110146172
O            6.85715932580628       -2.33196840627467        0.95727558283934
C            6.21182201276700       -3.56115309422710        1.16283981881056
C            4.88105361441360       -1.41682296655931       -0.15144545009201
C           -0.14434045043138       -1.27810107588100       -0.62163137528122
C           -3.71895573394342        3.00440955343728        0.64574879133927
C           -4.28494789994073        3.04722058361218        2.06625603157257
C           -3.14565214173521        4.37344266464507        0.31149773985490
H           -4.60367478986951        0.95363286758330       -1.11074155428057
H           -6.76520416566822        0.30854724906997       -1.72456399842629
H           -7.03703458278848       -1.04859880433248       -2.83818941852230
H           -5.52436962232317       -0.12255008530810       -2.93818014456779
H           -4.89241066284985       -3.95910455095311        2.24596588880395
H           -5.24299847616042       -5.12417922740681        0.95008945293274
H           -3.57713984401860       -4.53116063173534        1.18241753672090
H           -3.11725639368159       -2.41624342361601        2.12736019773705
H           -2.20621385205580       -0.17757838504438        2.22852548346666
H           -3.15258283011889        2.23234921974259       -2.08228111842735
H           -1.66152593888758        3.04136155849215       -1.61877088213827
H           -1.96783246301098        0.12805051400563       -1.54810368623259
H           -1.24917090870553        1.14365777225871       -2.89731052662140
H           -0.72699553616415        1.23140500368092        1.14193802829403
H            0.55050928094593        2.00861386601984       -1.21244223099977
H            2.04444190559004       -0.52443377055137        0.75016244421652
H            2.15254568779802        1.08068609923950        0.07386273628633
H            2.69535708027732        0.15062524450940       -2.16143033943192
H            2.60311981789774       -1.48468797063765       -1.50627562269755
H            4.55434670860759        1.64676587462319       -1.51607176752481
H            6.86621674803165        1.81961488303580       -0.73363335005774
H            8.60653479006717        1.84435718477151        0.83168366845626
H            9.12322906637525        1.16779333048216       -0.74020157757610
H            9.98098999084739        0.71916916032334        0.75143854131573
H            6.94144273042802       -4.20093035337851        1.65881252008123
H            5.33468593675275       -3.45027366641905        1.80794041837246
H            5.91099503471688       -4.02769395208437        0.21815798933704
H            4.30952394053934       -2.31956754681689        0.00467917709579
H           -0.29986698322088       -1.63835247113727       -1.64749886904036
H           -1.11597378890406       -1.20485689717027       -0.13523589341829
H            0.44667991476251       -2.01856620112186       -0.07894227014271
H           -4.58848575303177        2.80929650117571        0.00327147292718
H           -3.48277951745666        3.25975265268439        2.75356678199519
H           -4.73754315063336        2.10626213258376        2.35737259334299
H           -5.04786319004005        3.82539029795388        2.13554892205143
H           -2.31172430839280        4.53521532700855        0.98432567193655
H           -2.81236801317533        4.40056979572680       -0.72063280482840
H           -3.88531127353150        5.15244854603699        0.45450513618198
H           -0.40238743866988        2.73308724395473        2.74607000955002
