72
 energy: 55.100075493497 xtb: 6.6.1 (8d0f1dd)
N           -1.20126486818851        2.83035659213874        2.26182936462778
C           -1.44330343050582        1.89481612525701        1.42548585920822
C           -2.63758425152331        1.83698534031567        0.58776905920124
C           -3.26233043208964        0.50406273455882        0.60669577872504
C           -4.25534312921963        0.19344360858351       -0.33540435653625
C           -4.79129662366167       -1.06890292755710       -0.43732753203257
O           -5.70868258988000       -1.44749100239853       -1.37154525235863
C           -6.23545414616590       -0.47789050451079       -2.23873871054237
C           -4.37041979243738       -2.08511656494434        0.44334436228854
O           -4.94284829903224       -3.30987722231008        0.24237323706324
C           -4.62769979471323       -4.32968230940867        1.14857302183020
C           -3.46593191470332       -1.75827887268828        1.43658179182089
C           -2.92764621988922       -0.48152465748875        1.52565952010412
C           -2.27904736448366        2.18378013141642       -1.64230073174895
C           -1.45461187980085        0.97700593028221       -1.84660398986422
C           -0.16400251552813        1.12023294773618       -1.13572582625064
N            0.47509396883037        0.02550557212322       -0.62756196838091
C            1.84602042733155        0.09695869145610       -0.17645824896825
C            2.82265857662101       -0.41031132992480       -1.26363424391807
C            4.24667376337603       -0.31394110503151       -0.81248927982918
C            4.97761712017823        0.84394855269755       -0.99375759444974
C            6.28899650572977        0.93417759141211       -0.54442198523348
C            6.88946904598874       -0.13173139531088        0.10200062067387
O            8.16942015891630       -0.15066468442630        0.57114486887006
C            8.97970882874312        0.97095280577817        0.33374796456347
C            6.14761063386374       -1.31470233766406        0.31329871864369
O            6.81548013885602       -2.31061987769423        0.96536569483493
C            6.16614243723115       -3.53859230809713        1.16754156938044
C            4.84300445621952       -1.38541449490881       -0.14328873157258
C           -0.18131967928667       -1.26348262825886       -0.61739490181902
C           -3.65501753720567        2.99487701338778        0.69679374107209
C           -4.19473373994357        3.17897552893248        2.11529766483965
C           -3.03630343381459        4.29767375590194        0.21380984986118
H           -4.57897049339162        0.95961881101982       -1.01785257569877
H           -6.72891280601071        0.33221326798475       -1.69304217285768
H           -6.97569155412879       -0.99007290352671       -2.85295023637229
H           -5.46184147983391       -0.06263410294376       -2.89227732888881
H           -4.89593946379986       -4.06278230864169        2.17458366380509
H           -5.22267818623596       -5.18659496024176        0.83757021147311
H           -3.56347712505987       -4.58914635745865        1.10969573240904
H           -3.13966646228699       -2.50635251855603        2.14029687071013
H           -2.23542023624697       -0.27161348458933        2.32382534498679
H           -3.16570726799142        2.22117179040515       -2.28085805860815
H           -1.62546895889579        3.01276868578775       -1.86538762328416
H           -2.07050558403969        0.12308596204646       -1.49715881763449
H           -1.32281138374763        0.99561808428641       -2.94834506430252
H           -0.77275204742823        1.05300276597624        1.36337225437018
H            0.47358311186147        2.00061877397924       -1.30769615069351
H            1.99898345868330       -0.46963129618386        0.75072820432369
H            2.09356315410839        1.12774660418644        0.05991448856712
H            2.66862473882421        0.18555962271092       -2.15977789641287
H            2.57001083915102       -1.44639105761094       -1.50136121465424
H            4.52554213160258        1.68267334172956       -1.49813315173194
H            6.83903098358624        1.84632187264385       -0.71184043376342
H            8.58790843422922        1.85875672742372        0.83884220214365
H            9.08989748547858        1.17948840535830       -0.73670856834415
H            9.95510674725764        0.72679350442620        0.74832891495474
H            6.89235731282834       -4.18414720636221        1.66142991630622
H            5.29002861970290       -3.42536427317380        1.81298271430686
H            5.86283321869634       -4.00075777001979        0.22153596978111
H            4.26926105793616       -2.28731356843304        0.00993819657811
H           -0.32985478417858       -1.63589750959740       -1.63689809108084
H           -1.15552691385825       -1.18310856335756       -0.14023566869615
H            0.40574084862061       -1.99340098852407       -0.05851426477386
H           -4.54811552021487        2.76962978079962        0.09618956881551
H           -3.36689813639354        3.41483994529757        2.76053474328703
H           -4.66490492053066        2.28000577508625        2.49567755381431
H           -4.92972783949321        3.98500381566972        2.13220486617645
H           -2.18072673747244        4.47418835225517        0.85322459841258
H           -2.73056894075460        4.20207664334955       -0.82719765707550
H           -3.73427903850497        5.12190550776186        0.30204229720655
H           -0.32371232418632        2.72763222920128        2.78476376320413
