72
 energy: 1.806084107086 xtb: 6.6.1 (8d0f1dd)
N           -1.40233215989728        2.88820673697552        2.24306680103183
C           -1.51233302863674        2.08003657042800        1.26434687310163
C           -2.67801753374333        1.97789357262938        0.30464966886882
C           -3.29240661539732        0.59494318819683        0.43394304115058
C           -4.28675786076414        0.22738701149898       -0.47870570543896
C           -4.82892177161910       -1.03973178672034       -0.49226304838174
O           -5.77234154807349       -1.47726467060443       -1.37281806760291
C           -6.33158556240284       -0.55822213502521       -2.27461118538760
C           -4.38940433312208       -1.99835892116759        0.44518165541931
O           -4.97455205007336       -3.22497306538199        0.34302702604682
C           -4.64943898514576       -4.19271939868125        1.30416430040074
C           -3.44513738848746       -1.62305123696813        1.38035977938899
C           -2.90865815978551       -0.33786587272683        1.37947963898088
C           -2.26006137909781        2.19860976086689       -1.27575153458925
C           -1.33538204696051        1.09742673332076       -1.75071665820402
C           -0.05307100140548        1.14339686011318       -0.99932391758710
N            0.56048047327344       -0.02707107761971       -0.55715333585476
C            1.93734270453557        0.01178698277065       -0.16389909292779
C            2.89055094039910       -0.48885545174669       -1.27403854106770
C            4.31543944986081       -0.38600392647208       -0.83290890020804
C            5.03792056109449        0.77655686084884       -1.02358503461790
C            6.34860110459314        0.87905179338868       -0.57796670930800
C            6.95539937591361       -0.17797719908702        0.07667504349621
O            8.23494275826498       -0.18620105791032        0.54914475294812
C            9.03369724394749        0.94597424167333        0.32604045716072
C            6.22222825229364       -1.36558337517836        0.29342440985614
O            6.89782893596985       -2.35368821267089        0.94776656178300
C            6.25586390027044       -3.58401151608230        1.15830672912298
C            4.91815968921357       -1.44926245905276       -0.15837239691948
C           -0.10602162524412       -1.29414681670208       -0.62092208379322
C           -3.78683716978713        3.02817235655357        0.61206889728045
C           -4.37779189537424        2.92805471100670        2.01628365211080
C           -3.25157064692647        4.43903227369974        0.41328759085861
H           -4.62770093108145        0.95084639009391       -1.19882924455138
H           -6.80096154658384        0.28647602382684       -1.76002782742451
H           -7.09551507527368       -1.10888680600139       -2.82116525323542
H           -5.58525381515238       -0.18554141791613       -2.98356565968215
H           -4.88831281811946       -3.85321568740299        2.31607207946210
H           -5.26373660526236       -5.05827221114183        1.06263144016456
H           -3.59120782241532       -4.47281724473801        1.25599453452819
H           -3.09482556922632       -2.33242462947643        2.11322187011811
H           -2.17914526878836       -0.09070689181988        2.13471177346097
H           -3.12979682009654        2.27550792411823       -1.95936848800662
H           -1.66895818385881        3.11643619781106       -1.43214354201205
H           -1.88932438377068        0.15902360466531       -1.59132864726098
H           -1.14987469933827        1.25921166382109       -2.82544230306936
H           -0.70905936359198        1.42018259069749        0.93584606468592
H            0.59980613056091        2.00176637007130       -1.09276836735481
H            2.08426450168937       -0.58414645171269        0.74485277411111
H            2.21409614588254        1.03630391728265        0.08720642268017
H            2.72452129192286        0.11488535017401       -2.16484347314122
H            2.63632406921572       -1.52390847223848       -1.51047079595353
H            4.58338893308711        1.61058175134529       -1.53514140348890
H            6.89178871095847        1.79327395050983       -0.75614994771228
H            8.62501903154625        1.82995870697059        0.82575039633194
H            9.15618402672503        1.15630764098126       -0.74241288418830
H           10.00514212606840        0.70926874201344        0.75573813069152
H            6.98890336496826       -4.21729106332773        1.65691656511895
H            5.37783427366244       -3.47473152072872        1.80305034086927
H            5.95746493130172       -4.05534038508959        0.21525598095776
H            4.34962887230973       -2.35351588573332       -0.00097354032269
H           -0.26490405772877       -1.63300095361186       -1.65305713874024
H           -1.07547358324909       -1.22300851093524       -0.12650521703959
H            0.49256814646289       -2.03941242911105       -0.09727526129471
H           -4.62107762147762        2.86443177661986       -0.08165292133568
H           -3.59962959820598        3.10606863538510        2.74370555962120
H           -4.80315339255695        1.94852609704696        2.20210851983173
H           -5.16695414637105        3.67071572852077        2.13519231775934
H           -2.43716284432589        4.59335044397069        1.11248523839974
H           -2.90223513673838        4.57872533463149       -0.60302200580071
H           -4.03053360972737        5.16804373689006        0.60611921733478
H           -0.50023366945816        2.76743702932827        2.72364819361409
