72
 energy: 33.077208783716 xtb: 6.6.1 (8d0f1dd)
N           -1.27287970387398        2.82856575679118        2.26795231766353
C           -1.44193325493113        1.97326348986172        1.33919580842613
C           -2.63563685187173        1.89259839313152        0.42782998357301
C           -3.26837678849039        0.53632541996626        0.54245920735852
C           -4.26630921320357        0.20444588944922       -0.38344447031579
C           -4.80556806261766       -1.05972181251085       -0.45537918032730
O           -5.72750303512994       -1.46019935780781       -1.37523049394410
C           -6.26761189548489       -0.50484748890816       -2.25089091217546
C           -4.37790923815606       -2.05573321696393        0.44567799831482
O           -4.95331911134392       -3.28119674133123        0.27676061015716
C           -4.63467186273516       -4.28502939811156        1.20077077419291
C           -3.46237965995939       -1.70832843911911        1.42054922237552
C           -2.92280524847789       -0.42585502669356        1.47701535016253
C           -2.28640255342956        2.16260139451396       -1.46271377075393
C           -1.41481011191804        1.01603796207819       -1.82506209354354
C           -0.13580064387871        1.15821915944035       -1.08368929542255
N            0.50171054091578        0.01155466136508       -0.60967973559046
C            1.87310540897807        0.06782833333214       -0.17342329903189
C            2.84590349235588       -0.43637730465966       -1.26731677249898
C            4.26972822337844       -0.33780662928814       -0.82048316667651
C            4.99827400904736        0.82183288203638       -1.00371593153039
C            6.30921487503871        0.91600979699305       -0.55513925148908
C            6.91167926781335       -0.14707642803788        0.09384403226785
O            8.19222971526777       -0.16244705680994        0.56443501249290
C            8.99807250802358        0.96261410423859        0.33101169056886
C            6.17269359328654       -1.33113594329168        0.30672667567627
O            6.84332360239654       -2.32485646189792        0.96020788798861
C            6.19659228944287       -3.55358634022652        1.16426667686314
C            4.86850076982453       -1.40616348178886       -0.14893442690849
C           -0.15690979801110       -1.27312966804057       -0.62157287829379
C           -3.69597033206413        2.99921503648975        0.65982716254611
C           -4.25422884327995        3.09008394411995        2.08221921834836
C           -3.10923312063882        4.34976621732158        0.27736808820827
H           -4.59548364445039        0.95526196577929       -1.07995634971564
H           -6.75280006577257        0.31614479567283       -1.71346031343587
H           -7.01661381898902       -1.02872650926999       -2.84351878269448
H           -5.50336549348711       -0.10213458945997       -2.92289248674683
H           -4.89351411792206       -3.99412917958827        2.22248087343688
H           -5.23599864472339       -5.14542561909797        0.91266859131663
H           -3.57240319737654       -4.55060613620498        1.15817600667191
H           -3.12473294083896       -2.44495877947551        2.13194765322304
H           -2.21539457864489       -0.20769396513911        2.26033180743196
H           -3.16214275525405        2.22287595633143       -2.13892167027406
H           -1.65990929490872        3.02332993885597       -1.69016266170955
H           -1.99431239101348        0.12090617520422       -1.52940693602183
H           -1.27701716298776        1.09909314691023       -2.91876627695442
H           -0.73661386621279        1.17223352403162        1.20718040826085
H            0.52785380241081        2.00858039200498       -1.24788767791045
H            2.03060930249186       -0.50473941219498        0.75155924571386
H            2.13262874694628        1.09597844379797        0.06872228793226
H            2.68637652298675        0.16233181419176       -2.16093737472442
H            2.59228014472583       -1.47183286895036       -1.50502119331481
H            4.54486603915643        1.65893033871391       -1.50999228369062
H            6.85739128689747        1.82863218794559       -0.72601071694148
H            8.60038206685963        1.84913897476514        0.83419272940365
H            9.11215379965778        1.17173432088982       -0.73896865211136
H            9.97257408020201        0.72195093417701        0.75043758895304
H            6.92497312957547       -4.19553404386653        1.65946811030709
H            5.31973447210746       -3.44199531541560        1.80941545432581
H            5.89491499839915       -4.01847865182590        0.21904204978469
H            4.29610401544915       -2.30853703872978        0.00627784454105
H           -0.31110912001187       -1.63962132077914       -1.64542798345226
H           -1.12930286288526       -1.19850412749960       -0.13798804036044
H            0.43209943533902       -2.01098296811047       -0.07262415748392
H           -4.57557994894448        2.79451917608989        0.03337490340355
H           -3.44392310116414        3.31185769402557        2.75586321907513
H           -4.71410660654591        2.16337561887899        2.40542814067426
H           -5.00806882070801        3.87857169590133        2.13478640668580
H           -2.26839001876393        4.51558765127970        0.94000648343180
H           -2.78378866334615        4.33678771012968       -0.75845081237196
H           -3.83510629738431        5.14439693604282        0.40243409981572
H           -0.38237051411554        2.73412302401388        2.76585011596547
