72
 energy: 7.201514870623 xtb: 6.6.1 (8d0f1dd)
N           -1.36560002353127        2.88411402682501        2.25395480009571
C           -1.49633485605535        2.05507531824815        1.29161166024405
C           -2.66495231833193        1.95589554545817        0.32436242449106
C           -3.28600369195305        0.57998672182167        0.45986024045116
C           -4.28187991573427        0.22140849084745       -0.45528694842620
C           -4.82372836958726       -1.04489190907551       -0.48306675148138
O           -5.76144762903606       -1.47356633681470       -1.37396888131797
C           -6.31622774437334       -0.54509182322074       -2.26878859583677
C           -4.38707874258274       -2.01276064324651        0.44549924756089
O           -4.96976789069168       -3.23934775256055        0.32646264697017
C           -4.64576237958986       -4.21589964912356        1.27843662627568
C           -3.45029063610020       -1.64392786487038        1.39088211456024
C           -2.91290528062782       -0.35892533414074        1.40413408366863
C           -2.26560686403885        2.18583872653132       -1.30926138988751
C           -1.35455428205680        1.07706618707827       -1.77065771212518
C           -0.07116972601962        1.14768599843847       -1.02365793738131
N            0.54390964054068       -0.01946656546667       -0.56686337624529
C            1.92087265709533        0.02482139734939       -0.16622448360671
C            2.87947582171631       -0.47592573675772       -1.27247142004297
C            4.30416383614937       -0.37414799326304       -0.83014265081698
C            5.02828582071322        0.78764814822501       -1.01865729457245
C            6.33904262125390        0.88806402453335       -0.57222944648702
C            6.94486155615270       -0.17039133029477        0.08101775544646
O            8.22471142246089       -0.18017996791657        0.55320555595692
C            9.02504747069133        0.95021200801633        0.32692783035435
C            6.21019741581957       -1.35698043189991        0.29683202898304
O            6.88451574235782       -2.34642699276364        0.95126883146627
C            6.24139671499232       -3.57635400501970        1.16000205014334
C            4.90607967942410       -1.43851349039436       -0.15611050204039
C           -0.11943380032951       -1.29011849199347       -0.62124973062086
C           -3.76497399483721        3.01863647580171        0.62136469123399
C           -4.34710733450687        2.96677243027439        2.03294964750379
C           -3.21627662520990        4.41710411899646        0.37871643560641
H           -4.61938608231443        0.95160944822513       -1.16993110921875
H           -6.78959759613332        0.29358169691860       -1.74817244627779
H           -7.07660471190352       -1.08904017073952       -2.82703626140732
H           -5.56553631028621       -0.16452447214300       -2.96871155879823
H           -4.88960907000051       -3.88830564910281        2.29289375300020
H           -5.25655163933282       -5.08064236301339        1.02553304462764
H           -3.58635715842088       -4.49183173028231        1.23147812462847
H           -3.10240004434847       -2.36058538432064        2.11779719683866
H           -2.18795463188848       -0.11978622090712        2.16601754208327
H           -3.13460620310757        2.26158602092372       -1.99646375221684
H           -1.66568533245953        3.09034814966363       -1.49006876396419
H           -1.91597923581678        0.14535228429750       -1.58315197912826
H           -1.18391595920584        1.22394351175211       -2.85057793340355
H           -0.71515734391978        1.35775241869914        1.00671153945031
H            0.58509539830888        2.00393657601813       -1.13251706751564
H            2.07219410867559       -0.56419156092596        0.74688534730974
H            2.19298421504179        1.05041465243497        0.08250603256059
H            2.71478839614161        0.12651859914346       -2.16374402859922
H            2.62542656176787       -1.51111575812090       -1.50922755299904
H            4.57386659723953        1.62228923445611       -1.52881487856374
H            6.88354219196362        1.80182664362061       -0.74862288993917
H            8.61898386108207        1.83483224597254        0.82739381632069
H            9.14526193194232        1.16007701684742       -0.74199641641596
H            9.99750660667139        0.71301804010368        0.75382103226907
H            6.97322699616007       -4.21191770103357        1.65768803213908
H            5.36366035213356       -3.46652636655353        1.80485783859900
H            5.94218648848908       -4.04604883780771        0.21637955760478
H            4.33657930112146       -2.34227474740244        0.00098193275702
H           -0.27663486669060       -1.63515532669533       -1.65185584668153
H           -1.08955331059161       -1.21760360924085       -0.13008309896843
H            0.47661793228301       -2.03379054234016       -0.09139318699810
H           -4.61188940670039        2.84410225139723       -0.05503693256626
H           -3.56056311349624        3.15710129562369        2.74671733418436
H           -4.78251832599552        1.99938876882452        2.25555534176048
H           -5.12727646769695        3.72230183942139        2.13550428322492
H           -2.39586773031623        4.57284989395233        1.07013364228137
H           -2.87049597862250        4.51957395198987       -0.64339504420852
H           -3.98195014824271        5.16393725865439        0.55486978517118
H           -0.46429275428642        2.75607458940641        2.72962427646617
