72
 energy: 54.296912262687 xtb: 6.6.1 (8d0f1dd)
N           -0.90089723572201        2.86551595991572        2.17272960193070
C           -1.52588872642243        1.74194989890115        2.02144926582981
C           -2.76365035148861        1.63202542321461        1.36053227085708
C           -3.31454356789720        0.34326443868412        1.06613703780366
C           -4.20244455825456        0.13485267488259       -0.01959723325780
C           -4.69762592705491       -1.11300161724732       -0.33344666960907
O           -5.54337505179675       -1.38403862197645       -1.37498436539822
C           -6.02431967076360       -0.31786079172200       -2.15161829022120
C           -4.33018685141529       -2.23939513542429        0.43627809117725
O           -4.86573499969291       -3.43681198689701        0.03859493240552
C           -4.58621130415054       -4.58365091341514        0.79530978037708
C           -3.48229801018059       -2.04813157659979        1.51570656581600
C           -2.98433194772492       -0.79621592592701        1.81795830355862
C           -2.10047193821542        2.35061852266061       -2.51971728862203
C           -1.52943151088196        1.08964581844655       -2.01474346669828
C           -0.26592514083707        1.19520742442480       -1.27600479767248
N            0.31682504332520        0.17305117877485       -0.64018510728411
C            1.67856936846584        0.28637386611744       -0.17314228937947
C            2.66955472092227       -0.25588142567606       -1.22594588543291
C            4.08870566950107       -0.17261716653838       -0.74115452299742
C            4.83338519064052        0.97775420465578       -0.91881580888715
C            6.14955821315469        1.04713604562428       -0.48307550457498
C            6.73898405208330       -0.03819795463950        0.13975332279200
O            8.02321363019502       -0.09133848294798        0.58557170518791
C            8.86221237111638        1.01119724112682        0.35172447081878
C            5.98082179106425       -1.21323861020365        0.34463527239738
O            6.64012366851530       -2.22823971145657        0.96941406938453
C            5.96876843805043       -3.44419964402222        1.17467853117945
C            4.67151623046470       -1.26223139224644       -0.09506610454791
C           -0.29582750093004       -1.13102663163629       -0.62335472503723
C           -3.48870172322227        2.88995658576960        0.95589250990561
C           -3.80391074860146        3.69928384916938        2.22037855447553
C           -2.69766185022997        3.77038683747311       -0.01519617142309
H           -4.49576127026531        0.97752289842172       -0.62566667513417
H           -6.57511542037289        0.41033420095194       -1.54754115012808
H           -6.69979982247773       -0.75754350255769       -2.88393135022429
H           -5.21175824693361        0.19197341797441       -2.67978175630095
H           -4.92772695379132       -4.48817352499059        1.83052307947178
H           -5.14142630590560       -5.38796552012865        0.31596284798242
H           -3.51837690060877       -4.83429973788421        0.79121553048874
H           -3.21399759852884       -2.87817887486067        2.15117752323729
H           -2.36377632350100       -0.68760299649046        2.69159725566532
H           -3.05981722359299        2.31029280400495       -3.00008693722173
H           -1.42193054667462        3.10778511201766       -2.85671417002570
H           -2.27825263803663        0.53842037507583       -1.43129863331928
H           -1.32937299220734        0.44081852671644       -2.88476929122701
H           -1.05373089060111        0.79961395267789        2.33417713814109
H            0.25908682022479        2.14056561247710       -1.28125043247870
H            1.79036637403541       -0.27265643381793        0.75995667725146
H            1.90137965029104        1.33607182057021        0.03116151252873
H            2.55538878447691        0.33064313841577       -2.14007565397254
H            2.41869231478565       -1.29436124481961       -1.45195434793411
H            4.39850423770340        1.83171176369059       -1.41576788666588
H            6.70577577212669        1.95668193368243       -0.64328541707106
H            8.51442024876055        1.90472644904709        0.88045220146691
H            8.95142962103238        1.23365957286322       -0.71720911491152
H            9.83733068085196        0.72155668755150        0.74034754966786
H            6.69282112515226       -4.09947955390932        1.65562518152200
H            5.10143636819747       -3.32359927750613        1.83266704397978
H            5.64895649797229       -3.89558144054050        0.22907511335672
H            4.08784583301390       -2.15904881565116        0.04372462795302
H           -0.40942773833178       -1.53070592618279       -1.63731379689081
H           -1.28549860774548       -1.07963668451915       -0.16231356913020
H            0.32148942528077       -1.81528250991318       -0.04459766981545
H           -4.44318125504333        2.62713715418545        0.48882076880947
H           -2.87151070796737        4.01703640971558        2.67062681812627
H           -4.36164321614935        3.10701406681515        2.94037439452059
H           -4.39473452778802        4.57366141178838        1.96320213558348
H           -1.74149237936677        4.03569655758299        0.42236939043813
H           -2.51537861873461        3.20481577937718       -0.95835090976937
H           -3.24689940127629        4.68055642286619       -0.26001251233645
H           -0.02582022179623        2.77318026114953        2.68688182854390
