72
 energy: 44.949815565913 xtb: 6.6.1 (8d0f1dd)
N           -1.24230476875816        2.81377505802334        2.27451309208665
C           -1.43993035078838        1.92845280874996        1.37969839208176
C           -2.63233851130124        1.86470807350894        0.49886300234918
C           -3.26377836660547        0.52054900136100        0.57376058367012
C           -4.26010148864743        0.19900495331587       -0.35947449053501
C           -4.79838308495569       -1.06408196523053       -0.44625267705956
O           -5.71800718562936       -1.45346662741666       -1.37324428436416
C           -6.25136899754256       -0.49099322560064       -2.24488776837156
C           -4.37417776833511       -2.07030369794220        0.44466593640765
O           -4.94789048391510       -3.29531582423620        0.25959441643892
C           -4.63102261080568       -4.30725091893656        1.17477908629768
C           -3.46438939278805       -1.73280208652166        1.42884698335094
C           -2.92471388377010       -0.45298986599715        1.50104022308053
C           -2.28624324766643        2.16780162352086       -1.54555206124660
C           -1.43596057764603        0.99483843332991       -1.84141362519646
C           -0.15457678496939        1.13978008237386       -1.10690387424983
N            0.48774208658689        0.01622366895309       -0.62042924008242
C            1.85792934112222        0.08166005051512       -0.17546301770388
C            2.83421751357917       -0.42329725123761       -1.26545631755283
C            4.25796837287305       -0.32567647006207       -0.81631921342515
C            4.98779320708079        0.83309705577516       -0.99850251287036
C            6.29895187732087        0.92529264921751       -0.54955560793115
C            6.90039972051147       -0.13927026236532        0.09801862461098
O            8.18082034181514       -0.15651905902836        0.56775256491991
C            8.98881443080792        0.96682951081575        0.33245287371326
C            6.16001325648005       -1.32273447824614        0.31005181069000
O            6.82927278457058       -2.31768064070369        0.96286321979824
C            6.18112969609053       -3.54597088813894        1.16574450267046
C            4.85562055467971       -1.39560895309659       -0.14603314575721
C           -0.16996639551490       -1.27065658882855       -0.62018657012431
C           -3.67373016617338        2.99434608136302        0.67661649287055
C           -4.22365695914978        3.13335789968660        2.09822269272834
C           -3.07236068191606        4.32386632729850        0.24508372845722
H           -4.58654189704148        0.95758842252231       -1.04892909866745
H           -6.74058251211532        0.32462609408889       -1.70329262445839
H           -6.99612861340801       -1.00904499940203       -2.84828229591248
H           -5.48243234784092       -0.08210130175041       -2.90780166527789
H           -4.89455318606839       -4.02800266204172        2.19858390715096
H           -5.22929862961216       -5.16599162911529        0.87544348192886
H           -3.56782576250740       -4.56986369110523        1.13403229920145
H           -3.13206079937606       -2.47548281026035        2.13607004521612
H           -2.22526217544881       -0.23948088504763        2.29239559810540
H           -3.16652951869952        2.21872833044004       -2.20560177032687
H           -1.64740576074732        3.01472737749835       -1.77294820697162
H           -2.03091420382479        0.11928310434535       -1.51249072608919
H           -1.30182511617738        1.04850415695843       -2.93784356980511
H           -0.75030971153699        1.11049791123894        1.28115336133847
H            0.49991141262603        2.00306951173261       -1.27795165820489
H            2.01491131776385       -0.48655010089625        0.75183897129980
H            2.11169165404822        1.11151008506906        0.06384868263591
H            2.67732749106543        0.17414926830472       -2.16017357323358
H            2.58105154395140       -1.45905011806214       -1.50331480840329
H            4.53498497250263        1.67102225331257       -1.50370417525490
H            6.84807986312826        1.83770078538962       -0.71860788908768
H            8.59408851881041        1.85397772405403        0.83665131590301
H            9.10090732140216        1.17573665870764       -0.73776056513578
H            9.96380379192560        0.72443580085223        0.74939084356002
H            6.90838223214265       -4.18986651035432        1.66019950263097
H            5.30461524873506       -3.43361473672978        1.81101145097782
H            5.87863434067706       -4.00933860992045        0.22003884665729
H            4.28253817159867       -2.29774891551892        0.00814936646016
H           -0.32247598131187       -1.64200523707143       -1.64211820642674
H           -1.14284228583923       -1.19117829117105       -0.13970678065150
H            0.41722384285011       -2.00404905777973       -0.06394534450591
H           -4.56182626918454        2.77980017645596        0.06466273997566
H           -3.40472134733631        3.36322910494554        2.75766743696545
H           -4.68929558116267        2.22051768544470        2.45073217648289
H           -4.96832802285886        3.93109451290683        2.13276797452753
H           -2.22442138757545        4.49542649930013        0.89664890021504
H           -2.75585848661307        4.27080714047918       -0.79342045414072
H           -3.78478160457772        5.13326145590778        0.35152545022022
H           -0.35619387525898        2.72953336754474        2.78279981247951
