72
 energy: -4.710253600305 xtb: 6.6.1 (8d0f1dd)
N           -1.45741207729531        2.83942529872851        2.23982953126174
C           -1.53797806556169        2.11474261386734        1.20705904190810
C           -2.71419768294307        2.02062090080967        0.27439226489469
C           -3.30807632259911        0.62397152394074        0.38116393786044
C           -4.29705042889551        0.23819795997724       -0.52763027196920
C           -4.83966110565186       -1.03029420498836       -0.51180395327060
O           -5.79564795384173       -1.48437513516834       -1.36988024636985
C           -6.36395667409883       -0.58451935888246       -2.28564435758124
C           -4.39475913359726       -1.96958605291223        0.44401689330472
O           -4.98431761564289       -3.19582002683386        0.37647056972866
C           -4.65671164020638       -4.14605037787017        1.35556007004250
C           -3.43525434805622       -1.58163371176971        1.35835998408143
C           -2.90083438304998       -0.29680614704776        1.32871432686913
C           -2.23220789750772        2.24492411831326       -1.22348546196809
C           -1.29571547784572        1.14184074640019       -1.70874674890748
C           -0.02062738352170        1.13647993229868       -0.94319649482460
N            0.60100276004843       -0.03941740537555       -0.55277879152033
C            1.97244844363167       -0.01233805853615       -0.16033284168880
C            2.91417462355773       -0.51461488890801       -1.27756546952915
C            4.33901774786102       -0.40988264209115       -0.83900692734746
C            5.05782746639569        0.75434336089020       -1.03445953203701
C            6.36814661777380        0.86088898954958       -0.59046244538941
C            6.97659195310265       -0.19333322463388        0.06720324328724
O            8.25554475518771       -0.19881921473302        0.53991668297404
C            9.05146523159284        0.93692783093058        0.32384877490466
C            6.24642313525390       -1.38301261071434        0.28630151863873
O            6.92508392502416       -2.36826210032392        0.93999415616602
C            6.28598408707069       -3.59937116973205        1.15559297919482
C            4.94252735841222       -1.47106403445177       -0.16286932123506
C           -0.07747778152006       -1.29989779468660       -0.61853638416568
C           -3.83015808080450        3.05154228141037        0.59664452403060
C           -4.43773933130522        2.85162993900309        1.98151437254454
C           -3.32271471357475        4.48322910514305        0.48275554766772
H           -4.64350734052824        0.94865330746961       -1.25870730096209
H           -6.82559178215829        0.27189801725172       -1.78304264676857
H           -7.13462994507348       -1.14851167701510       -2.80855810933771
H           -5.62673403718806       -0.22761308657373       -3.01246369295541
H           -4.88550967840369       -3.78372959285969        2.36247101658374
H           -5.27776217448172       -5.01286595614156        1.13624074574804
H           -3.60089350332955       -4.43435356711811        1.30463148519682
H           -3.08243545453663       -2.27490672280332        2.10543809758882
H           -2.16281777348134       -0.03287216051958        2.07049692442254
H           -3.08484717719099        2.32869582783003       -1.91464038592007
H           -1.66228076388968        3.18010561466338       -1.31664576055017
H           -1.84301879881944        0.19806090475382       -1.60607130831728
H           -1.07763826660330        1.32609181354981       -2.77228550475482
H           -0.69691348909939        1.53961600857028        0.78510344079057
H            0.62656810110138        1.99750478392357       -1.01453700003731
H            2.10661798215959       -0.62405514683689        0.73915317474758
H            2.25837646568871        1.00922764213115        0.09696833211520
H            2.74452830358359        0.09158029366712       -2.16734234745558
H            2.65851187706712       -1.54921852805240       -1.51226216621116
H            4.60305508514536        1.58711978172164       -1.54895453340161
H            6.90851327001415        1.77593145781809       -0.77268751813546
H            8.63782185090946        1.81997075522035        0.82178106290823
H            9.17892805800460        1.14816051164911       -0.74370645541504
H           10.02031763674031        0.70048660278307        0.75996492099983
H            7.02211986976797       -4.22720628828085        1.65605820652334
H            5.40774119720227       -3.49125186002507        1.80075545107249
H            5.98912994583714       -4.07462066943742        0.21413432909758
H            4.37571831657744       -2.37613892543568       -0.00441022229419
H           -0.24302699242159       -1.62870969999729       -1.65179789229087
H           -1.04553517825659       -1.23129060039462       -0.11661781231037
H            0.52622251707336       -2.04870051911036       -0.10783849590430
H           -4.63653209639642        2.91007332482133       -0.13250002459307
H           -3.67703779575937        3.00352836708108        2.73637341370300
H           -4.83952966568240        1.85016842599060        2.09089879252012
H           -5.24583300793825        3.56520238108762        2.13338139548344
H           -2.51951304395056        4.63738253327308        1.19590851328404
H           -2.96941206973343        4.69716290048424       -0.52003983706939
H           -4.12810029227488        5.17473095630981        0.70799342906993
H           -0.55763750523273        2.76724206380251        2.72616606589971
