72
 energy: -2.174204365756 xtb: 6.6.1 (8d0f1dd)
N           -1.43360045437140        2.86995994400116        2.23699239066830
C           -1.52754511385782        2.09655621349333        1.23545674575771
C           -2.69688256037514        1.99879971657586        0.28876726100979
C           -3.30065600411936        0.60916966110018        0.40754195029315
C           -4.29236098502135        0.23273038134331       -0.50315368084393
C           -4.83454092151516       -1.03513150233661       -0.50201265785690
O           -5.78404472813866       -1.48113900685425       -1.37152181366351
C           -6.34757051546767       -0.57153508296643       -2.28034741403870
C           -4.39221034419084       -1.98402719058434        0.44469881007762
O           -4.97966177389975       -3.21051628278331        0.35983602356516
C           -4.65311044937777       -4.16946751700462        1.32994906019912
C           -3.44036133562193       -1.60230506838305        1.36950871983430
C           -2.90499522447720       -0.31720308356395        1.35422179286777
C           -2.24840219203974        2.21844526934157       -1.24680383950869
C           -1.31522107197607        1.11938682091783       -1.72993806065749
C           -0.03563507731067        1.13956534438324       -0.97241801552534
N            0.58049837531671       -0.03393770824932       -0.55273431518932
C            1.95493642075812       -0.00072066316190       -0.16175714880656
C            2.90228010912037       -0.50176428017790       -1.27568495931811
C            4.32716725055983       -0.39782375979645       -0.83590092005738
C            5.04784321305210        0.76558299432727       -1.02891067913716
C            6.35838878114042        0.87005014720987       -0.58411072090348
C            6.96602352526743       -0.18561660940989        0.07199105148009
O            8.24526710242766       -0.19244982757777        0.54462669347967
C            9.04250456886265        0.94156007492235        0.32509438748380
C            6.23435456194338       -1.37427568586448        0.28979472358076
O            6.91136172317915       -2.36102452724278        0.94390214249982
C            6.27071354693267       -3.59176162157135        1.15671589749440
C            4.93039161771309       -1.46007196151753       -0.16079776448528
C           -0.09176473739866       -1.29751378955983       -0.61990007497084
C           -3.80892529830996        3.03955911352301        0.60400867341366
C           -4.40827334398108        2.88971010545148        1.99919884383209
C           -3.28703974081820        4.46129344831540        0.44814459343060
H           -4.63593907360485        0.94969850957148       -1.22879367394805
H           -6.81297702153333        0.27912254059341       -1.77173952341500
H           -7.11488580088260       -1.12885534312132       -2.81522569001630
H           -5.60556917806206       -0.20677922125393       -2.99811846760284
H           -4.88692102682973       -3.81849336854939        2.33938794897919
H           -5.27072478020300       -5.03575720425599        1.09955591754174
H           -3.59602327528635       -4.45346662578704        1.28030288401063
H           -3.08857092192732       -2.30367721614702        2.10933911541219
H           -2.17097929920374       -0.06151165755041        2.10253775493356
H           -3.11075267366822        2.29972221837716       -1.93266342518270
H           -1.66736610210168        3.14702845065322       -1.37431471886001
H           -1.86456159523837        0.17730428841365       -1.59869212585225
H           -1.11391931168356        1.29374720500143       -2.79938516127075
H           -0.70337532119794        1.47999769643476        0.86002690551686
H            0.61413125377798        1.99968309973420       -1.05320697313784
H            2.09581956461911       -0.60403213069343        0.74268027091163
H            2.23601730686710        1.02261216792421        0.09175641156227
H            2.73444456193905        0.10326631957074       -2.16599960660321
H            2.64747942556433       -1.53659510845578       -1.51143576180625
H            4.59330196990509        1.59905749270889       -1.54197580981643
H            6.90027335364458        1.78466104827553       -0.76424923861357
H            8.63121930877642        1.82492301485174        0.82403409244578
H            9.16741751587925        1.15245829835280       -0.74287849002109
H           10.01271570346270        0.70513888193062        0.75792448884432
H            7.00516271738956       -4.22249430056983        1.65629026034812
H            5.39252531555230       -3.48299177282907        1.80154467891235
H            5.97304668791226       -4.06496570093710        0.21441478058232
H            4.36270920960455       -2.36473392755708       -0.00304578450111
H           -0.25366250696627       -1.63116714073435       -1.65280672035384
H           -1.06059783539648       -1.22763995757812       -0.12187167866600
H            0.50908559930014       -2.04473255561610       -0.10260565451413
H           -4.62950140264657        2.88727645269589       -0.10739831871234
H           -3.63836086938315        3.05450767451711        2.74002206980639
H           -4.82205454520514        1.89862363204472        2.14686228382599
H           -5.20683081909221        3.61816095684036        2.13508088592341
H           -2.47840470845386        4.61516887315603        1.15460734315290
H           -2.93518962744490        4.63814442439746       -0.56173162802231
H           -4.07917416720343        5.17200309967260        0.65717513482717
H           -0.53118323767099        2.77073020847776        2.72050696006436
