72
 energy: 57.701743504904 xtb: 6.6.1 (8d0f1dd)
N           -0.86331588798408        2.87916761548694        2.10405368860820
C           -1.48158683111254        1.76535629159273        1.88117511020334
C           -2.71284043086648        1.66993869618962        1.20197461302366
C           -3.28697616651683        0.37882988052276        0.95866444194623
C           -4.21003123842317        0.14178281732484       -0.09203255005717
C           -4.72097715650458       -1.10990614710115       -0.35664038057252
O           -5.58291563740732       -1.39823815310857       -1.38136761206759
C           -6.07392007349455       -0.34908644432543       -2.17509316151768
C           -4.33673089932974       -2.21217700384404        0.43434670623275
O           -4.86889825706668       -3.41934516310875        0.07461908403735
C           -4.59046806141033       -4.53180813974610        0.87946472315140
C           -3.47987668173131       -1.98707090616514        1.49958508183237
C           -2.96043674252952       -0.73381867130044        1.74465570571863
C           -2.16609248578592        2.31543215568409       -2.35447612092291
C           -1.54726077571062        1.03052993251686       -1.96186337240577
C           -0.23902326092606        1.10922497303268       -1.31932768862267
N            0.32951914089399        0.14156432500797       -0.59273747726463
C            1.71135167212718        0.24419029010951       -0.17237504892362
C            2.70168541179316       -0.28832587848263       -1.23343901851627
C            4.12363613839158       -0.19980610140865       -0.75506866184064
C            4.86702176491425        0.95035689881335       -0.93692538084083
C            6.18201961330052        1.02362193681736       -0.49577032785964
C            6.77399427730255       -0.05533741323410        0.13471260380578
O            8.05685231776179       -0.10106383314777        0.58162422096760
C            8.88890739139083        1.00758935784842        0.34619909377899
C            6.01917896955275       -1.23384754194661        0.33987537419176
O            6.68115605204686       -2.24440481917327        0.96896289425140
C            6.01457906550429       -3.46457915732037        1.17353622347178
C            4.71171948631630       -1.28671316886686       -0.10625594953338
C           -0.27498842629833       -1.16461802259114       -0.59406210287366
C           -3.49257875438560        2.92997815013531        0.88975670544924
C           -3.87477001906914        3.58534003011253        2.21226496284991
C           -2.74765571319661        3.92993926732564        0.00861110646106
H           -4.51551177880756        0.96806607759415       -0.71402090482077
H           -6.61114416555285        0.39743234979783       -1.58039094943887
H           -6.76488900226814       -0.80158483340644       -2.88724923194402
H           -5.26458678825461        0.13465742202611       -2.72953469890265
H           -4.91737307795445       -4.39879349744995        1.91678868862067
H           -5.15840419095200       -5.34584095525624        0.43586968529124
H           -3.52284047337353       -4.77896005735843        0.86524591479730
H           -3.21265031794227       -2.79267938271547        2.16453764405104
H           -2.33384147856695       -0.59799942203645        2.60697923966481
H           -3.11129375204428        2.27316554586685       -2.86037815876187
H           -1.47867134899630        3.06964701466263       -2.65812375677142
H           -2.26752240899255        0.43536247078908       -1.40301577155626
H           -1.36193172431935        0.51162845725750       -2.91542855811293
H           -1.02425096268214        0.80692986182176        2.16212120733360
H            0.24685836621269        2.06772308008314       -1.31196122084049
H            1.83222649941008       -0.31639247916247        0.75973496751700
H            1.93702429551990        1.29119509963291        0.03261358117248
H            2.58364394785910        0.30100290587781       -2.14363824973849
H            2.45533126246201       -1.32569719458644       -1.46775281637011
H            4.42950342300919        1.80084738260781       -1.43661057958516
H            6.73892337766736        1.93302537028465       -0.65556758379305
H            8.53040595915915        1.90033890873638        0.86919450425811
H            8.98260982156632        1.22229452480228       -0.72376403723791
H            9.86343997616858        0.72736869585994        0.74044813111927
H            6.73745191013607       -4.11883255306348        1.65861277350722
H            5.14522158855088       -3.34443932944776        1.82788087202388
H            5.69950278179203       -3.91678826626153        0.22705597249277
H            4.13094114869162       -2.18556881474813        0.03352604896220
H           -0.38842131116224       -1.54281604322836       -1.61588706827876
H           -1.26532533970410       -1.11423090631702       -0.13615998990925
H            0.34251238749317       -1.85420500975854       -0.02312329981615
H           -4.44126016464125        2.67390564848431        0.40463527795045
H           -2.97272835225215        3.89181549971565        2.71571533536916
H           -4.40777425311228        2.90440837096880        2.86846265275975
H           -4.50134316748596        4.45561867955860        2.02383153320086
H           -1.80125933087330        4.17478112390659        0.46516295095341
H           -2.58885345755745        3.42328603287424       -0.96122962390496
H           -3.28868706741575        4.86193716384211       -0.16754667479963
H           -0.02334369847249        2.79908392116348        2.67460025394252
