72
 energy: 63.814727012774 xtb: 6.6.1 (8d0f1dd)
N           -1.11652518288756        2.89336615078999        2.21824943009868
C           -1.44169938976249        1.88068831367815        1.50105331644504
C           -2.65068579105401        1.79515833634783        0.74578170706537
C           -3.25705840621224        0.47605336354255        0.67463650593974
C           -4.24282630049101        0.18125479076653       -0.28813474135697
C           -4.77584910044985       -1.07988878493198       -0.42334157843344
O           -5.68496780151014       -1.43794766956979       -1.37398337408280
C           -6.20302843743923       -0.45165007911554       -2.22654808725349
C           -4.36301027031638       -2.11488132755368        0.43919039723235
O           -4.93229978346988       -3.33894120006504        0.20723650347965
C           -4.62051271284036       -4.37400877090585        1.09607158453569
C           -3.46597295292093       -1.80857713417179        1.44678860248596
C           -2.92300816868192       -0.54012315339461        1.56424866764879
C           -2.26184153890203        2.21167914690842       -1.81726211364180
C           -1.48594451699694        0.95311486207839       -1.84660334678106
C           -0.18617233614625        1.08702887263327       -1.17751350257145
N            0.44936625146526        0.04192421253022       -0.63053108169970
C            1.82177011534348        0.12601527576915       -0.17546620762180
C            2.79820405448299       -0.38715510369317       -1.25817144998286
C            4.22354018226131       -0.29067861310608       -0.80016550883791
C            4.95622260580925        0.86586366677214       -0.98270790605174
C            6.26821473171835        0.95252823411525       -0.53395333142762
C            6.86679675081918       -0.11648268878095        0.10931327198579
O            8.14711850389866       -0.14036489460230        0.57358371679564
C            8.96133388804314        0.97879867062818        0.33579574757625
C            6.12267232077748       -1.29821404431741        0.32018701848464
O            6.78817421274286       -2.29656377226450        0.97032461380816
C            6.13597634816693       -3.52353144442910        1.17073407300422
C            4.81766864798975       -1.36540726391257       -0.13600565283790
C           -0.20087424100861       -1.24735296493974       -0.61323243727066
C           -3.61944542538882        2.98730641665120        0.73901564956607
C           -4.13488935609668        3.26687960714051        2.14613537266470
C           -2.97486138015358        4.23879228841350        0.17085788666057
H           -4.56519813742908        0.96214592784303       -0.95571877926226
H           -6.70448741036936        0.34690744091471       -1.67126108296021
H           -6.93488117758181       -0.95105845135495       -2.86123701988726
H           -5.42089441104470       -0.02313748385411       -2.86106967931976
H           -4.89793699460531       -4.13199613816654        2.12617378527868
H           -5.20900689014327       -5.22663380259427        0.76163376424553
H           -3.55444922558567       -4.62736336580616        1.06086730546373
H           -3.15665874454583       -2.56537505055708        2.14818745860944
H           -2.25306730438499       -0.33744918234767        2.38234590254358
H           -3.16157592904212        2.22580581176406       -2.41722464145008
H           -1.59148981672018        3.01013309956457       -2.04746544789332
H           -2.14266252644722        0.15400665603078       -1.46938571007145
H           -1.32564212766129        0.90370830468226       -2.93776308623995
H           -0.83705095885603        0.99069877012517        1.49789915232652
H            0.41543728005552        1.99180486974245       -1.32373913655181
H            1.96709780431878       -0.43739692424752        0.75211471891660
H            2.05604954813880        1.15908889608186        0.05308653571274
H            2.65076743801050        0.20774788355822       -2.15668035120894
H            2.54746100228243       -1.42283088583063       -1.49643699392946
H            4.50558160488087        1.70603409321355       -1.48586846113267
H            6.82019471318821        1.86405391761049       -0.69858576508342
H            8.57546409803903        1.86774691152897        0.84341886321271
H            9.06808192288803        1.18764309885067       -0.73484190452761
H            9.93731606528367        0.73052380438683        0.74602354854988
H            6.86029545247521       -4.17238210404848        1.66314709744074
H            5.26070770342725       -3.40884647338185        1.81676474357552
H            5.83077749628427       -3.98317234519832        0.22411253409575
H            4.24226248728523       -2.26653031717983        0.01451029109935
H           -0.34634539228537       -1.62202548606786       -1.63063061924795
H           -1.17834865556539       -1.17055172081429       -0.13883992652776
H            0.39087079132449       -1.96720284459356       -0.05121965901961
H           -4.52005828622665        2.76354567663339        0.15574544170700
H           -3.28970164264327        3.51704218979162        2.76155126524407
H           -4.61270108886121        2.39904583678402        2.57841966813560
H           -4.84997941513804        4.08969256005495        2.12530873521375
H           -2.09577092879089        4.43040782336233        0.77097073443688
H           -2.71884357425448        4.06024373634245       -0.86223311485744
H           -3.64566157059895        5.08427325891851        0.21495893309128
H           -0.25318337691597        2.74524204579637        2.75594348557751
