72
 energy: 59.745995724941 xtb: 6.6.1 (8d0f1dd)
N           -0.86496618246323        2.87599639899536        2.09726747711385
C           -1.47476536550839        1.76597148923189        1.83005623671687
C           -2.70074991314710        1.67991809670300        1.14837690132228
C           -3.28005395397243        0.38730480822914        0.92249821883463
C           -4.21496461347829        0.14346759892451       -0.11554772377392
C           -4.73332524022577       -1.10792998865821       -0.36114601546146
O           -5.59422329372983       -1.40518088516819       -1.38451858568563
C           -6.09028768063886       -0.36196109482455       -2.18211971939927
C           -4.34616057214653       -2.20044243133797        0.44180595252800
O           -4.87621867392909       -3.40915269034127        0.09275750590369
C           -4.59369506767552       -4.51306587510285        0.90722645677258
C           -3.48185707147389       -1.96538332208148        1.49788733336102
C           -2.95548829581386       -0.71149139073162        1.72460947274244
C           -2.18162969417993        2.29901300155608       -2.29683985377353
C           -1.54912129708531        1.00960091807925       -1.94318902535171
C           -0.22898185416194        1.08222822151853       -1.32765768520695
N            0.33946951474179        0.12824271043682       -0.58130419832813
C            1.72473676209145        0.22981081265511       -0.17080407187856
C            2.71347414747853       -0.29944297583081       -1.23617152183330
C            4.13650016434115       -0.20988720399015       -0.76020009726356
C            4.87881306690891        0.94052548267680       -0.94241168735208
C            6.19344305322680        1.01516887912269       -0.49988499435872
C            6.78625866948249       -0.06236698758000        0.13243302704738
O            8.06927098472179       -0.10592790046924        0.58006389776528
C            8.89847386407928        1.00475987665541        0.34498410609192
C            6.03233099578491       -1.24168457779961        0.33798523015130
O            6.69499986592757       -2.25108443580667        0.96854124159394
C            6.02975277950417       -3.47198454555679        1.17343727031887
C            4.72524179470072       -1.29594051298520       -0.10980276424881
C           -0.26409250546279       -1.17661504409955       -0.59003633825905
C           -3.49848305534251        2.93644016823386        0.86462449504164
C           -3.90764213721132        3.54391407677134        2.20339543699411
C           -2.76616748660211        3.97686344935121        0.01982565026891
H           -4.52296918344830        0.96480661483351       -0.74301436293007
H           -6.62289359385345        0.39061574442556       -1.59115609079653
H           -6.78661778764843       -0.82008183234638       -2.88528029462323
H           -5.28387371843528        0.11512221978542       -2.74571990126334
H           -4.91440046744528       -4.36731883020206        1.94439656008938
H           -5.16424537167003       -5.33125809684292        0.47579321909682
H           -3.52629546336059       -4.76014263766259        0.88947044501725
H           -3.20598423551406       -2.76494427094576        2.16578659852120
H           -2.32153696302659       -0.56649987375946        2.58045773744209
H           -3.12333323016686        2.26383900666622       -2.80989283587821
H           -1.49597584716922        3.05746727402452       -2.58970080199176
H           -2.26074560243140        0.39111894687282       -1.40326745828406
H           -1.35291549555214        0.55778907824768       -2.92363325973570
H           -1.01699582204988        0.80468601392438        2.07235287098155
H            0.23368862579627        2.05199645989809       -1.30408721605073
H            1.85251446220098       -0.32785093379118        0.76169316902596
H            1.94704680676729        1.27543469122728        0.03340096679871
H            2.59270130931674        0.29042685646430       -2.14534738433658
H            2.46769347900993       -1.33646643328017       -1.47192517681024
H            4.44000098724188        1.78974083533865       -1.44281629339014
H            6.74978513600325        1.92474761551198       -0.66013236796963
H            8.53633742640393        1.89677855414310        0.86623446596857
H            8.99342998951244        1.21832108798988       -0.72501337085631
H            9.87309005391005        0.72844311189331        0.74131204688970
H            6.75251542924261       -4.12589479540252        1.65947785016222
H            5.15978134732379       -3.35213399541107        1.82683833785154
H            5.71581702364897       -3.92484875215120        0.22696886129225
H            4.14508029416275       -2.19523509320726        0.03086083957891
H           -0.38118810379981       -1.55255335916047       -1.61226587952593
H           -1.25448361623894       -1.11833261824158       -0.13615009090587
H            0.35143500785977       -1.86910191454845       -0.02129446610600
H           -4.44820180288236        2.67868798209135        0.37286271968772
H           -3.01397713815501        3.84721810250083        2.72157721549584
H           -4.43731898929136        2.83879412543256        2.83861463151598
H           -4.54677042807021        4.40899030444179        2.03396944490073
H           -1.82602898876248        4.22198938918423        0.49225812000695
H           -2.59668603433522        3.50285645699582       -0.95471312648961
H           -3.32380914072065        4.90170338891870       -0.11883996248327
H           -0.04457130445847        2.77354478167031        2.69419473586611
