72
 energy: 63.134141489334 xtb: 6.6.1 (8d0f1dd)
N           -0.93001672631639        2.88050790784460        2.11718342409717
C           -1.45923689027085        1.77057743291372        1.72989448019031
C           -2.68083042449471        1.69733032406986        1.04077774365210
C           -3.26884791413263        0.40420321399964        0.84863270805505
C           -4.22211884350332        0.14825706348496       -0.16720724770949
C           -4.74753503703211       -1.10516826186948       -0.38009465312692
O           -5.61909066591228       -1.42104719267660       -1.38632140910509
C           -6.12191524609011       -0.38906825419937       -2.19408268977318
C           -4.35306956656764       -2.17815562872001        0.44343933961092
O           -4.89061022727605       -3.38952622810258        0.12741381725661
C           -4.60022937274425       -4.47521048383777        0.96258105959135
C           -3.48028746018003       -1.92220293337905        1.48614742161331
C           -2.94517946062908       -0.66648388491277        1.68274615873653
C           -2.20971883837539        2.26843678128301       -2.17414299043129
C           -1.54167244679117        0.97066926033249       -1.91032324979203
C           -0.21082039319056        1.05309020314606       -1.30472731937072
N            0.37213444970274        0.09689052799262       -0.58054716801065
C            1.75484036661245        0.19868583810652       -0.17106605605100
C            2.73848555327416       -0.32454718577890       -1.24298759841831
C            4.16255696812874       -0.23258065470563       -0.77053362285777
C            4.90180267555984        0.91953419124009       -0.95311696183594
C            6.21579829470009        0.99782138388899       -0.50865272306396
C            6.80994506160273       -0.07706844941682        0.12767843352888
O            8.09236522360264       -0.11569967195132        0.57800249198772
C            8.91714246712920        0.99801935626114        0.34203854976237
C            6.05835621735013       -1.25826412585799        0.33467957730251
O            6.72260024862462       -2.26453530758404        0.96902668550539
C            6.06063864573445       -3.48682100039477        1.17465610773289
C            4.75193470487535       -1.31615598682716       -0.11580107534341
C           -0.24310134146674       -1.19910114448496       -0.59380235501127
C           -3.52485626838026        2.94270295849303        0.81524116486120
C           -3.97155800497722        3.46087073689975        2.17876425712600
C           -2.82167072927144        4.06027736216239        0.04093018609554
H           -4.53691316935268        0.96112906437490       -0.80241127009968
H           -6.64340369379392        0.37786083973666       -1.61311787165397
H           -6.83050319950858       -0.85635284339645       -2.87676372226260
H           -5.32075135806443        0.07268945845954       -2.77581801483081
H           -4.90712307924513       -4.30232020408604        1.99878040276920
H           -5.17599611625268       -5.30292829664862        0.55768431280772
H           -3.53375418166135       -4.72371987126055        0.93880565832502
H           -3.19521429623754       -2.70997689229835        2.16179538006596
H           -2.30270921140306       -0.50210954151220        2.52772692272380
H           -3.14259030887631        2.24682696698161       -2.70458598222380
H           -1.52402011841666        3.03004966624109       -2.44935987077634
H           -2.22785782338309        0.30745520497577       -1.40401216737310
H           -1.35518894956439        0.65225339399441       -2.94301954508177
H           -0.96481514102752        0.80306384743774        1.88752818583078
H            0.26488267164326        2.02612510087828       -1.28511442071722
H            1.88796040477044       -0.36075550624902        0.75879069853558
H            1.98013294415783        1.24141557244440        0.03876881092394
H            2.61081490904918        0.26735674654499       -2.14959747402404
H            2.49194303595668       -1.36062673714590       -1.48049235138526
H            4.46012036471483        1.76613357822908       -1.45536219288395
H            6.77059741829742        1.90787831174143       -0.67108353359160
H            8.54808810844500        1.88938156047500        0.85894516426205
H            9.01491429350333        1.20903930992802       -0.72837829620393
H            9.89194068439427        0.72952126141221        0.74286208393402
H            6.78319295967659       -4.13984380386595        1.66295724083743
H            5.18956165867888       -3.36744163679623        1.82626443745596
H            5.74883671485057       -3.94160653043112        0.22849033258211
H            4.17284571683697       -2.21611740530327        0.02677306185829
H           -0.37062535508064       -1.57160381395040       -1.61575500889287
H           -1.23178205456652       -1.13240766996667       -0.13727043521281
H            0.36740021778454       -1.89402162782747       -0.02735045007146
H           -4.47235453483111        2.69140314828923        0.31083262942246
H           -3.09677024379064        3.75763719857433        2.72757061177366
H           -4.49332150001948        2.70897720550179        2.76412211415795
H           -4.63355094136298        4.31323266177368        2.04897727425683
H           -1.90127589525488        4.28962986744261        0.55822362377782
H           -2.63111377379943        3.66710546971621       -0.96541723841242
H           -3.39951957357552        4.98233192320673       -0.03404187632512
H           -0.09242516816659        2.77088976940851        2.68356252266214
