72
 energy: 14.095871846399 xtb: 6.6.1 (8d0f1dd)
N           -1.32645991111816        2.87687266707030        2.25944933461041
C           -1.47947987022205        2.02731277493645        1.31664887032300
C           -2.65366725630197        1.93463573316748        0.34960635332365
C           -3.28026194626005        0.56531085580902        0.48609199411576
C           -4.27703125151478        0.21548936204215       -0.43205151047280
C           -4.81837435891495       -1.05001571816091       -0.47412094205919
O           -5.75065175885688       -1.46953427555625       -1.37492668993032
C           -6.30089159533270       -0.53187804689818       -2.26303303539047
C           -4.38479651301927       -2.02702842412523        0.44563589941068
O           -4.96498975475464       -3.25341774511819        0.30998757076820
C           -4.64202981518474       -4.23891035172000        1.25261923468617
C           -3.45536917833623       -1.66483353456037        1.40102929232235
C           -2.91715684912130       -0.38028638768734        1.42838158343131
C           -2.27127389317731        2.17667010100577       -1.34839735205148
C           -1.37430968271056        1.05771082667766       -1.78930715737432
C           -0.09110745831248        1.15337167155958       -1.04556405500222
N            0.52987718805630       -0.00921903217608       -0.58146890095147
C            1.90488251622170        0.03873890018847       -0.16855663922762
C            2.86855050015920       -0.46277649556013       -1.27069278564790
C            4.29297357671514       -0.36214994758351       -0.82724954875151
C            5.01860456664181        0.79892418168134       -1.01378333869828
C            6.32943174797417        0.89719077970481       -0.56661721182436
C            6.93418838563970       -0.16276804080321        0.08521838248674
O            8.21430487196500       -0.17428974629663        0.55703156316488
C            9.01636559663229        0.95435381083905        0.32811683377095
C            6.19806335936916       -1.34842607256647        0.30010283889616
O            6.87123377005048       -2.33924737168748        0.95436310511489
C            6.22713502902461       -3.56885516462555        1.16152937781959
C            4.89390095628743       -1.42776982697419       -0.15386264968496
C           -0.13201363229770       -1.28475132713464       -0.62132277916164
C           -3.74234505300987        3.01110979523819        0.63246141244259
C           -4.31590027222472        3.00578271135764        2.04965810781011
C           -3.18138044462347        4.39606942084199        0.34521864095734
H           -4.61111138406616        0.95229488202634       -1.14127280266266
H           -6.77819318891842        0.30082194528823       -1.73655319991560
H           -7.05767098610809       -1.06913104731370       -2.83276106924342
H           -5.54589629915756       -0.14364141956819       -2.95392313798804
H           -4.89074215944885       -3.92360659939373        2.26966274466085
H           -5.24923478537666       -5.10270996999500        0.98817080158605
H           -3.58146582209405       -4.51060037836864        1.20670977835117
H           -3.11064540972418       -2.38830939884009        2.12268104430764
H           -2.19707257381068       -0.14881867087384        2.19690855190137
H           -3.14411771213457        2.24676643570133       -2.03489892677234
H           -1.66274842992132        3.06673404737236       -1.55267212812463
H           -1.94304021509749        0.13649476225496       -1.56976812991435
H           -1.21713580250857        1.18544158996257       -2.87442913087238
H           -0.72219133199118        1.29440136378519        1.07639350369476
H            0.56916069689949        2.00619450185535       -1.17341287626903
H            2.05909511265279       -0.54413738630630        0.74882599561199
H            2.17254628290545        1.06514178468076        0.07804313344497
H            2.70510124586084        0.13842574778001       -2.16249954975568
H            2.61450438762967       -1.49801550570551       -1.50780038354466
H            4.56436322000835        1.63424772875081       -1.52258821586818
H            6.87525091375962        1.81047709619650       -0.74129504327804
H            8.61293794832843        1.83956874542330        0.82942181568320
H            9.13456592656614        1.16393455569290       -0.74118718927561
H            9.98960416600242        0.71633582754626        0.75252264511002
H            6.95789082039686       -4.20647326080502        1.65839896181641
H            5.34969958765367       -3.45851846605380        1.80649310227601
H            5.92714974072947       -4.03707208149300        0.21740971526249
H            4.32339193647537       -2.33102835223254        0.00282913634716
H           -0.28859644107138       -1.63688160328007       -1.64974443195865
H           -1.10281502110143       -1.21185713132804       -0.13255559393983
H            0.46140904978428       -2.02728693891410       -0.08537223560057
H           -4.60077004077329        2.82593098397470       -0.02722535748699
H           -3.52136822199914        3.20763863341301        2.75005232324761
H           -4.75974748344685        2.05096719541461        2.30721778107302
H           -5.08777760196726        3.77259339019468        2.13652741843674
H           -2.35447177494221        4.55413341801130        1.02789494315058
H           -2.84088337012215        4.46168473045833       -0.68214815250505
H           -3.93391691652124        5.15954053745987        0.50507897897966
H           -0.42862580601479        2.74173293016609        2.73567532521400
