25
 energy: -42.042563533298 gnorm: 0.007561695840 xtb: 6.6.1 (8d0f1dd)
C            3.04014051019299        1.13098056293245       -0.02747187438045
N            2.12853011422780        0.02747742337724       -0.12447086781331
C            2.42530987692284       -1.25537615014753       -0.35384781297312
N            1.29993166537888       -1.98304477331190       -0.35463417915949
C            0.22773976108384       -1.16506846355710       -0.12473292986833
C            0.74556781298983        0.14790868385709        0.04194262503177
C            0.10138078168981        1.32834967245049        0.22668990179830
O            0.39433970462138        2.56726370909119        0.66267009002572
N           -0.96581538541054        1.99543128183329        0.75854365953641
C           -1.94589226269713        2.65923344062846       -0.05936716814203
C           -2.04840897062457       -0.74440013391272       -0.37369343639886
O           -3.22473134418253       -0.61793877860412       -0.41296902726787
N           -1.09313528948897       -1.58257998019061       -0.05739236916428
C           -1.38091865196806       -2.95267549309170        0.40585937583428
H            2.97405445659822        1.58662767854838        0.96224883400861
H            4.05582030348226        0.78567313309787       -0.20137609004442
H            2.78439834520132        1.89371693245466       -0.76510687385949
H            3.41211527249172       -1.64139993377972       -0.50863108198875
H           -2.23004918597287        3.57594950267355        0.45470738303595
H           -1.58653972314197        2.89532106395047       -1.06329960995817
H           -2.81348563982058        2.00551534628586       -0.11839436761180
H           -0.75560503408195       -3.18054072303400        1.26914533368441
H           -1.20973105276316       -3.67505097516636       -0.39375896748161
H           -2.42603395877024       -3.00443140424918        0.70176983003014
H            1.25144940814211       -2.97870308053627       -0.51325875897294
