72
 energy: 50.424359321347 xtb: 6.6.1 (8d0f1dd)
N           -1.54992295366393        3.42818223815005        2.09151807176835
C           -1.56356629594532        2.52211162121979        1.22691914396499
C           -2.72401162401223        2.29780184267334        0.29929681758088
C           -3.26264545022961        0.87600830421152        0.47323615472907
C           -4.20573015202567        0.37943166864532       -0.42723726228218
C           -4.69968152305401       -0.93331896029874       -0.30980873169376
O           -5.66345071131890       -1.42371964006058       -1.13474980823002
C           -6.23658520179154       -0.59145402692576       -2.09887779652123
C           -4.23874025949918       -1.82097711097584        0.69478992783791
O           -3.41424467018529       -5.62121490750064        0.38041404092705
C           -4.27256662102265       -6.07390056022025        1.10931627417539
C           -3.34584562930612       -1.26544711918055        1.60649050232509
C           -2.85452995576035        0.03619777538434        1.50606590033349
C           -2.14743823384337        2.48964900890448       -1.13060440751241
C           -1.31594794161731        1.31996412480683       -1.68350029737754
C            0.00113493043702        1.19654704404159       -1.02495873231422
N            0.51942879611229        0.03055470153793       -0.55346431560802
C            1.87830446114496       -0.01658479294824       -0.10775109492784
C            2.79598603189551       -0.58127595241441       -1.21054800091957
C            4.23051257295884       -0.50034609604276       -0.78383890633791
C            4.95083546056375        0.66483294697007       -0.96729635495473
C            6.27303694788998        0.75757142355518       -0.55663436193435
C            6.89368268088195       -0.31809502325084        0.04947005311224
O            8.18147637721641       -0.34659070818881        0.48748446840371
C            8.98170944562562        0.79404770848697        0.31134962262434
C            6.16495207717384       -1.51373726217965        0.24924224339328
O            6.86245801035443       -2.51675514515007        0.84790620186447
C            6.23245971048718       -3.75367194717725        1.05710416029462
C            4.84831860951636       -1.58595099029933       -0.16397200350747
C           -0.23806953179743       -1.19001431886269       -0.58821135882115
C           -3.87230294590980        3.33366513267399        0.50054943946040
C           -4.52569912702973        3.20987226597834        1.87681977323793
C           -3.42465837459508        4.78517737177009        0.29256945719929
H           -4.53828552099472        1.02967670982856       -1.23340183214012
H           -6.66280810995908        0.31079395786219       -1.64628300201529
H           -7.02741668772245       -1.19497306820351       -2.53369509843015
H           -5.50638574964038       -0.31716671495632       -2.86497591530155
H           -4.59739759861954       -3.15412866148901        0.82678183605875
H           -5.27140660018328       -6.39468902847990        0.76486479183748
H           -4.00259531416659       -6.67161221547418        2.00236048405256
H           -2.96177471368811       -1.88201471638740        2.40726744075561
H           -2.17230461353144        0.39168409097333        2.26943226595260
H           -2.98428781596440        2.66349597940971       -1.81076856993813
H           -1.52028559657580        3.38499763226662       -1.13687963389368
H           -1.89737814816278        0.40303069032549       -1.60961003456853
H           -1.16008472499345        1.52453451455961       -2.75477391208036
H           -0.70776806820403        1.87587497649790        1.00077367722622
H            0.63033626031967        2.06412967041988       -0.95134500897892
H            1.95108590168176       -0.64654672369256        0.78424352515406
H            2.22145990078709        0.98726218200808        0.15676401256670
H            2.63846769315473        0.00626732969997       -2.11780850161834
H            2.51260408967640       -1.61405845087557       -1.41702744334878
H            4.48996868560943        1.51448989678865       -1.44842837327495
H            6.81217800886788        1.67654864067888       -0.72331583780410
H            8.58156288256979        1.66195032330421        0.84771325776312
H            9.10053364080304        1.04619450990899       -0.74776786367474
H            9.95307478545983        0.53250601139348        0.72808196352360
H            6.98655676903103       -4.38711059881026        1.52255416645548
H            5.37361859802384       -3.66333404695014        1.73067050815218
H            5.90980618640024       -4.20751473738223        0.11402038826178
H            4.28407163603647       -2.49472959865687       -0.02120797134250
H           -0.42339154970348       -1.49549573380062       -1.61934395380321
H           -1.20092179148297       -1.07957070822901       -0.08499793702342
H            0.32282115140241       -1.97422443741168       -0.08285571251583
H           -4.63071681790788        3.11422986020402       -0.25867763658324
H           -3.80009187778208        3.46011894835143        2.64371624072295
H           -4.90421875587574        2.21263295009687        2.05064026845719
H           -5.35639377594833        3.91254536477522        1.95107382799685
H           -2.66764399368051        5.05253592119783        1.02454614269270
H           -3.04028399513166        4.96934586211901       -0.71390772256884
H           -4.28160262264036        5.44336524590387        0.42996559934610
H           -0.69748463798070        3.52642994529298        2.63483290183986
