72
 energy: 12.242438630228 xtb: 6.6.1 (8d0f1dd)
N           -1.52498244428356        2.92953265950478        2.23182800373645
C           -1.56478487919581        2.23033912822196        1.18806843010488
C           -2.75182460820871        2.10395322821355        0.26604188231788
C           -3.31869228443136        0.68041249346416        0.38792835812483
C           -4.29059502713388        0.18846636071570       -0.47162344446338
C           -4.75879951374794       -1.13126787095505       -0.44288109094545
O           -5.75962137841502       -1.52175167517191       -1.28466920247383
C           -6.32771488417472       -0.61224800455364       -2.21374905779588
C           -4.21320274911337       -2.12514545154592        0.44691547406272
O           -4.43586157091791       -3.52934428584785        0.17954450199694
C           -4.51236026290624       -4.53914173862910        1.19786695591892
C           -3.37254638405666       -1.54511506663069        1.40936703524817
C           -2.92157312888984       -0.21923200766827        1.36460525698613
C           -2.18992127637427        2.34323807661004       -1.16824095836581
C           -1.26790528342961        1.21911119781920       -1.68258868396624
C            0.00643609859482        1.16608147806688       -0.91888510744550
N            0.59895315899122       -0.02958180105951       -0.53915650721695
C            1.97499869722662       -0.04688336007176       -0.14974901817239
C            2.90731761716684       -0.56408790557630       -1.26916213388323
C            4.33720534804553       -0.46174738171706       -0.83893225400542
C            5.05368931179570        0.70521777174777       -1.02950649917900
C            6.36539525640812        0.81680623878710       -0.58894766164999
C            6.97940859112513       -0.24040636928370        0.05885160741223
O            8.26389360082469       -0.24957228125568        0.52252694653347
C            9.05229895200681        0.89427497048068        0.31835221800429
C            6.25182474061195       -1.43317829181517        0.27318706784514
O            6.93766858209921       -2.42059745771473        0.91798389202897
C            6.29605990858189       -3.64981758818026        1.13304421579926
C            4.94665685662187       -1.52386221609040       -0.17108206235368
C           -0.09983940342158       -1.28204801130615       -0.61038828975996
C           -3.87626545188699        3.13715304199686        0.56052690068949
C           -4.50563704268726        2.87782276462631        1.92662834348696
C           -3.40354531858793        4.59233830409346        0.49138257377373
H           -4.66405568799670        0.86931044305152       -1.21758201381578
H           -6.75911708710156        0.27366625990673       -1.72995471130526
H           -7.12461600927735       -1.16515066535536       -2.71486753457664
H           -5.61324304508208       -0.28035176145211       -2.97770536043377
H           -4.69125601160801       -4.00498834071996        2.06818553910462
H           -5.27480480778231       -5.35659794774921        1.05468675553205
H           -3.56113308309595       -5.04792891597475        1.33885034663379
H           -3.01266525316885       -2.15884838333307        2.21291058711594
H           -2.19988875641222        0.11357211354149        2.09677841703195
H           -3.02325524584358        2.45189447280860       -1.86703786127918
H           -1.62130869678060        3.27935159159952       -1.17219015740974
H           -1.80340561675883        0.27552957691005       -1.62460993731629
H           -1.05581342388312        1.41057070339467       -2.74627434129628
H           -0.69913008698645        1.68928876329532        0.73826937422282
H            0.67881953879728        2.00273703230309       -1.01288721356494
H            2.09111641886782       -0.67836738736966        0.74094054827815
H            2.28134271549024        0.97011675768641        0.11181964646619
H            2.73712649980818        0.04787298772294       -2.15751047949894
H            2.64226426496668       -1.59682955474877       -1.49885933036420
H            4.59473528644694        1.54223981190926       -1.53549513721524
H            6.90135680537983        1.73699631726759       -0.76524326027624
H            8.63525715480327        1.77344292984680        0.82288660907120
H            9.17741693830810        1.11715245643995       -0.74728706602297
H           10.02179020643114        0.65404630899594        0.75086899330252
H            7.03524134353357       -4.27756336333483        1.62862169245947
H            5.42023425411467       -3.54273618914024        1.78257283168903
H            5.99222621361804       -4.11890694404552        0.19073222812029
H            4.37662544343238       -2.42628597117634       -0.01287933001284
H           -0.27769453486127       -1.60665643172106       -1.64374095168877
H           -1.06422154298093       -1.20541270270531       -0.10382269061633
H            0.49615729209236       -2.04689542075587       -0.10973873399325
H           -4.64940595658700        2.99949740819570       -0.20525555918505
H           -3.75932405743549        3.03044647780420        2.69879446951441
H           -4.88219007590184        1.86278795225648        1.98861930591290
H           -5.33272111345932        3.56589240194971        2.09308906104020
H           -2.61437397365353        4.77045226343233        1.21464079089476
H           -3.03949522991812        4.86080487430612       -0.49952938866840
H           -4.23538061060177        5.25476085525066        0.72811314322305
H           -0.63122209873646        2.94781518102564        2.71668394175411
