72
 energy: 30.795528244748 xtb: 6.6.1 (8d0f1dd)
N           -1.54169922818523        3.00975383271410        2.22258677998875
C           -1.57216918506739        2.27513811427084        1.20151247485446
C           -2.75614612954167        2.12624590950315        0.27611612716096
C           -3.31307494694781        0.69243619503342        0.41661401991059
C           -4.25683711603209        0.14868158479343       -0.43962287041459
C           -4.69309085322223       -1.19222744060308       -0.41984864740719
O           -5.71578934954632       -1.54474284014023       -1.25509001288965
C           -6.29202949540148       -0.61730119445796       -2.17436578235970
C           -4.10201481271778       -2.19783831983433        0.45296768829816
O           -4.12838835366010       -3.68789249486612        0.16618170370226
C           -4.44698696898912       -4.75921547686289        1.10749836352994
C           -3.31933165086270       -1.55013177617571        1.43409522572743
C           -2.92615195169715       -0.20178498616119        1.40632035914280
C           -2.18961130395897        2.36619265569173       -1.15936064367839
C           -1.27547813911092        1.24245011042999       -1.68993893822541
C            0.00772844620054        1.18641448958343       -0.94783857185960
N            0.57697219717417       -0.01051471716138       -0.54002187394481
C            1.95480850667832       -0.04374605038219       -0.14755274926168
C            2.88906565554874       -0.57000770195133       -1.26262202344416
C            4.32126910094659       -0.47190217455806       -0.83154210295686
C            5.03988053454481        0.69472382214412       -1.01984113007469
C            6.35317651292121        0.80459033952528       -0.58266364021781
C            6.96866572690816       -0.25576045574244        0.05856917449209
O            8.25392608220260       -0.26699950505711        0.51901966325040
C            9.04259900753125        0.87769945923167        0.31800456094087
C            6.24111233415518       -1.44890442398257        0.26952053389731
O            6.92779781902864       -2.43838413041946        0.90988625612221
C            6.28585064065913       -3.66732175694942        1.12305796001620
C            4.93417430539603       -1.53718502036968       -0.17164281722502
C           -0.12398438594621       -1.26557503470777       -0.60815412630802
C           -3.87915171722384        3.16671112696769        0.55057520596824
C           -4.51105744318714        2.92960116387886        1.91898500732243
C           -3.40722186894693        4.62314790894009        0.46280401724973
H           -4.65062306541886        0.81871825482045       -1.18447914142318
H           -6.71379808443290        0.27315376705631       -1.68798109373281
H           -7.09980263433744       -1.15840908460309       -2.67435699887704
H           -5.58648727100443       -0.28667229555656       -2.94806881772918
H           -4.75964576972318       -4.26010413694660        1.94288641986935
H           -5.23079520979867       -5.54627899451082        0.87393422858277
H           -3.56897536767501       -5.35141116964141        1.34217234637475
H           -2.98037075286134       -2.12996515851473        2.26682680711966
H           -2.22635427472112        0.15079743767590        2.14868259035591
H           -3.02263232105946        2.48696195367664       -1.85740716971066
H           -1.61014969975224        3.29751825365961       -1.15468018410041
H           -1.80988474966019        0.29967508650090       -1.62172917498472
H           -1.08497892199431        1.43149842744482       -2.75928169869235
H           -0.70663652418873        1.71170444432685        0.78741713792805
H            0.69790911999699        2.00668497850475       -1.05268398292965
H            2.06470116749842       -0.67693510563514        0.74161435678766
H            2.26990619827280        0.96841917499051        0.11648249713142
H            2.72316727532171        0.03763714140468       -2.15457737718994
H            2.62154289330627       -1.60334516666020       -1.48896711964254
H            4.58046414057456        1.53355282443601       -1.52220304309264
H            6.88884485698590        1.72631579447761       -0.75473314915226
H            8.62741197704879        1.75552263328623        0.82668563882707
H            9.16588241599184        1.10532151685374       -0.74692411928650
H           10.01289620378055        0.63523945410320        0.74720007543953
H            7.02575221667460       -4.29691774958957        1.61525693310980
H            5.41184591233168       -3.56118092172045        1.77513990895290
H            5.97905110725951       -4.13267301849273        0.17984858111631
H            4.36458082052765       -2.44004265320718       -0.01578480719589
H           -0.30484988020410       -1.59359664003763       -1.63951132141750
H           -1.08748064607892       -1.18707512162704       -0.10171258615301
H            0.46646599954936       -2.03615389986108       -0.10597849023301
H           -4.64986235640868        3.02120935513841       -0.21647809902978
H           -3.76417414018278        3.09628582936575        2.68752916020368
H           -4.88765654238731        1.91688527697182        1.99576131057232
H           -5.33770619055250        3.62110815090288        2.07463078968841
H           -2.62195972130531        4.81346108368205        1.18706277872503
H           -3.03954852858510        4.88241209059237       -0.53010166344015
H           -4.24085114450579        5.28883150582523        0.68644316853358
H           -0.64604183113776        3.03833928331398        2.70295097372905
