72
 energy: 57.176146454030 xtb: 6.6.1 (8d0f1dd)
N           -1.55905100340128        3.08851216907760        2.21213822477616
C           -1.57949390564015        2.32428049209086        1.21234528670666
C           -2.75961357792361        2.15155509216207        0.28655103980480
C           -3.30037433517442        0.70806723008362        0.44818849372308
C           -4.20849523926504        0.12658587619823       -0.41917761252730
C           -4.62965338539959       -1.22686590499295       -0.39471433786688
O           -5.66262455595893       -1.56549916648895       -1.22819463425031
C           -6.25510320744646       -0.62622581083209       -2.13709665388178
C           -4.03080533008911       -2.21047716046961        0.50567671437167
O           -3.84917060641195       -3.86257601110525        0.24429959555018
C           -4.38394192546399       -4.96581143029869        1.03731796728680
C           -3.27582985220977       -1.53101839545470        1.47885331070262
C           -2.92156247077578       -0.17479943410393        1.45377076759378
C           -2.18724430188534        2.38869361448957       -1.14877783998403
C           -1.28491204338624        1.26139745631742       -1.69375838415383
C            0.01511109337486        1.18635646307803       -0.98962972304154
N            0.55294525500409        0.00436123363859       -0.52511485188738
C            1.93610747875080       -0.03949134586240       -0.14265444996817
C            2.86989812684896       -0.57368714606640       -1.25474411560800
C            4.30421313855310       -0.47946784694892       -0.82268638901794
C            5.02482633871831        0.68643527755513       -1.00961801632791
C            6.34007169635356        0.79319697223267       -0.57674918404646
C            6.95678182796034       -0.27046294586902        0.05774216742570
O            8.24187937296459       -0.28332874423276        0.51499287920528
C            9.03242443034924        0.86110501738990        0.31779147175133
C            6.22887865610513       -1.46376880849496        0.26556678963594
O            6.91630245244660       -2.45503051489893        0.90026351759235
C            6.27550062891955       -3.68465309154741        1.11232031390410
C            4.91993451084734       -1.54886684393429       -0.17157039789219
C           -0.14756695993722       -1.25167147554524       -0.60399850998748
C           -3.88208959734401        3.19740110197020        0.54107825757598
C           -4.51652195251686        2.98104374183156        1.91115892802521
C           -3.41031842747169        4.65450637960838        0.43418363631646
H           -4.59804297830260        0.78902211090006       -1.17603949126788
H           -6.67029058656141        0.26463868567279       -1.64492451284859
H           -7.07264532112110       -1.15824972000780       -2.63405027086815
H           -5.56108127298099       -0.29359788087834       -2.92106086978867
H           -4.93025763790300       -4.50269708248012        1.77030666924053
H           -5.14080283126925       -5.72506877213026        0.66700023411600
H           -3.59018658917536       -5.63534094770460        1.35332707534932
H           -2.94801621210920       -2.09519933709380        2.32214166412735
H           -2.25376213445705        0.19205410661301        2.21174795961831
H           -3.01904934348385        2.52087522107260       -1.84744377491691
H           -1.59785521634550        3.31446647772368       -1.13559383066228
H           -1.82351664584558        0.32164081130973       -1.61800952891019
H           -1.11564173895263        1.45475533780319       -2.76628110951517
H           -0.71456365635507        1.73789684646581        0.83654037700324
H            0.71515711097490        1.99928796858783       -1.09150080415523
H            2.04063060844555       -0.67490262797862        0.74436078848120
H            2.25936082612664        0.96864631516704        0.12494877842559
H            2.70856556588618        0.02806482054812       -2.15149099035729
H            2.60037144406012       -1.60739734997939       -1.47722972779866
H            4.56560896937818        1.52727547534741       -1.50823937250604
H            6.87620877038857        1.71554518982359       -0.74550579734442
H            8.61997455440183        1.73752971107816        0.83114036518076
H            9.15471144250146        1.09316496350819       -0.74622040774950
H           10.00309201742325        0.61551298527290        0.74436804204990
H            7.01660366924840       -4.31563579922905        1.60097121870174
H            5.40376951569182       -3.58023732638915        1.76760530161256
H            5.96620008701090       -4.14695227160319        0.16841667299604
H            4.35211718158670       -2.45330777382889       -0.01898758603168
H           -0.32894799612423       -1.57651691279073       -1.63539661317002
H           -1.11076170521054       -1.17117716649137       -0.09922929723767
H            0.43761882291707       -2.02690012857453       -0.10232119620587
H           -4.64994349049880        3.04359698198252       -0.22741577930925
H           -3.77080761418633        3.16157695088929        2.67756392131498
H           -4.89303127140158        1.97066413932186        2.00208252654829
H           -5.34266478580980        3.67561144002473        2.05545528770882
H           -2.62952625271378        4.85753546834284        1.15998676230485
H           -3.03959007424708        4.90478377578850       -0.56066934119468
H           -4.24576702995582        5.32286750278384        0.64398173930317
H           -0.66302873330133        3.12759623209838        2.69159407210693
