72
 energy: 77.975241891963 xtb: 6.6.1 (8d0f1dd)
N           -1.56713941525542        3.37807751863325        2.13091295510013
C           -1.57855741748201        2.50280406209644        1.23227426737711
C           -2.73940662543570        2.26995408403072        0.30783209755220
C           -3.26166987629508        0.83616369132009        0.48272473880728
C           -4.18547760432655        0.31701030755777       -0.42035658862141
C           -4.66157121008277       -1.00621385721270       -0.30746060182569
O           -5.62656754440443       -1.47576080094835       -1.14927701950250
C           -6.21147442524025       -0.61602872184999       -2.08119549662730
C           -4.19844381093516       -1.90495418725404        0.69433413884783
O           -3.41919863406330       -5.22330252389419        0.43447974538070
C           -4.27716846017316       -5.85993576827702        1.03075195039460
C           -3.30537731610033       -1.32991387232713        1.59132236265232
C           -2.85687846827257       -0.01233004310069        1.50802150096157
C           -2.15952863365321        2.47597969375623       -1.11865420489125
C           -1.31392061558832        1.32146475489979       -1.67993059103567
C            0.01710713112932        1.18190200515370       -1.05357179931909
N            0.51733428515606        0.02758835773029       -0.53238926389256
C            1.88601584381854       -0.02527580715500       -0.11510132236373
C            2.80952860498522       -0.58167496594928       -1.22076584944372
C            4.24573502037926       -0.49765382496246       -0.79400364026744
C            4.96740035754485        0.66795559702519       -0.97656506638351
C            6.28809951114364        0.76334168228574       -0.55892305390619
C            6.90723938918911       -0.31068526049337        0.05353634270457
O            8.19543134918534       -0.33583657789246        0.49525157979031
C            8.99305416600217        0.80754532459316        0.31456129119732
C            6.17932825643367       -1.50529636310246        0.25272485957802
O            6.87571077365665       -2.50544190769545        0.85937234116818
C            6.24246730001231       -3.73975798848433        1.06933876659720
C            4.86432143748366       -1.57973877775650       -0.16781176376955
C           -0.22107938666738       -1.20464492317536       -0.59154974235749
C           -3.87972733900964        3.30843663956008        0.50897898114381
C           -4.52739208642558        3.16069995256003        1.88365221594918
C           -3.42158058157499        4.76182240859583        0.32691644265988
H           -4.53143984020020        0.96499597912106       -1.22251784289051
H           -6.63206529305289        0.27640093349713       -1.60322865110212
H           -7.01654349444155       -1.18630856812536       -2.53695374855544
H           -5.49517203717929       -0.31376426767690       -2.85321781033746
H           -4.59928683291853       -3.44570287686675        0.87556846940277
H           -5.16502679898237       -6.30461695208611        0.56695352649606
H           -3.88790255595015       -6.51808708432246        1.81856877403601
H           -2.91617127821185       -1.92975121528082        2.40285848785527
H           -2.20986119455178        0.34460552949756        2.29526309006500
H           -2.99012041634665        2.63544396941452       -1.81233413676148
H           -1.53683614130984        3.37743078931778       -1.10874381139352
H           -1.88166099938499        0.39699436204411       -1.61141906360344
H           -1.15922517964350        1.54880186856330       -2.74289983044791
H           -0.72442644496732        1.84713860910783        0.98296227841470
H            0.64876516460500        2.05242566945171       -0.98814095003020
H            1.96460050977608       -0.65942644901356        0.77313485392627
H            2.22234403277653        0.97992104437494        0.15292240755994
H            2.65315472389315        0.00932731097532       -2.12592195038276
H            2.52934206826339       -1.61487492145751       -1.43244715175176
H            4.50791208091107        1.51689116015438       -1.46083183111514
H            6.82706696615958        1.68355156507103       -0.72374162085860
H            8.59066334562333        1.67754923858809        0.84626810206152
H            9.11189397566099        1.05681164437507       -0.74556206645149
H            9.96484688340701        0.54994309951031        0.73245194624580
H            6.99265498119484       -4.37301762324885        1.54113263915784
H            5.38022926878704       -3.64476658569486        1.73803185830881
H            5.92309180980700       -4.19387805479170        0.12508740359448
H            4.30042978846294       -2.48848573014926       -0.02443656892099
H           -0.40817232061159       -1.51458730383163       -1.62340745856688
H           -1.18226035520630       -1.10041753503317       -0.08704290531680
H            0.34872761585819       -1.98348955884777       -0.08750110312327
H           -4.63776914170620        3.11660736455301       -0.25953423893382
H           -3.79584292402750        3.39296636521663        2.65072709334812
H           -4.90630979287968        2.15945489512929        2.03550868667199
H           -5.35520814598170        3.86268651406219        1.97661904486941
H           -2.65946510591942        5.01236857046195        1.05872696087438
H           -3.04021501798063        4.96829557913455       -0.67587483598376
H           -4.27238829397467        5.42447176299974        0.48162669570246
H           -0.70080946874218        3.44434922375089        2.65934280017290
