72
 energy: -4.640466690884 xtb: 6.6.1 (8d0f1dd)
N           -1.50056349097990        2.81019955304766        2.23522381203495
C           -1.55350974148812        2.16986448261390        1.15663403683203
C           -2.74741038071189        2.07108629739501        0.24903135018314
C           -3.31658666803454        0.65717474954455        0.34052087064879
C           -4.30477426862328        0.23544940919835       -0.54751234099690
C           -4.83253090876548       -1.04521408853972       -0.50360043865205
O           -5.80679973454239       -1.49693080347132       -1.34321030407166
C           -6.37918228604055       -0.60937405354647       -2.27405668715736
C           -4.35932930704359       -1.98981071882715        0.44500647487811
O           -4.86233029301182       -3.26696050983633        0.33231034124838
C           -4.62631239579128       -4.20505613248743        1.35381053658699
C           -3.42059590056375       -1.53966673670099        1.35929497337214
C           -2.89847391210838       -0.24863215284378        1.29842026659163
C           -2.19324000709940        2.31196408803647       -1.18118809343380
C           -1.26390108378557        1.18691044412939       -1.66914944599600
C            0.00589482010909        1.13349222321287       -0.89832326604709
N            0.62933552922328       -0.04733826845936       -0.55464521659453
C            1.99870948498921       -0.03845946830120       -0.15536992574038
C            2.93059854357659       -0.54785811472857       -1.27702438406442
C            4.35569978415076       -0.44133049724646       -0.84078658002926
C            5.07119728976553        0.72417492779062       -1.04030208566039
C            6.38161474333561        0.83611010924496       -0.59922863701072
C            6.99269712165356       -0.21662077904911        0.05801913769765
O            8.27309029900208       -0.22089755086998        0.52705531371875
C            9.06496265976667        0.91953470014365        0.31956508649558
C            6.26558924718938       -1.40872710034872        0.27830750437543
O            6.94930654063432       -2.39237909068387        0.92825085558812
C            6.31132460673725       -3.62328939174718        1.14806782159306
C            4.96147047176212       -1.50160248560784       -0.16641662098581
C           -0.06281959245627       -1.30044464610521       -0.61689025816085
C           -3.87063930550458        3.09298343445345        0.57742663969458
C           -4.49697912749150        2.80139320964212        1.93930781670657
C           -3.39659216431441        4.54587480994079        0.53446239308315
H           -4.65485149278722        0.93084207082469       -1.29169756059612
H           -6.82671046647167        0.26380370802773       -1.78589729227522
H           -7.16138659935887       -1.17984957512699       -2.77381242003740
H           -5.65443553966330       -0.27117054909393       -3.02354994546048
H           -4.83727007633991       -3.73527693165526        2.29997772886213
H           -5.29124636040126       -5.06494825831277        1.19449560229982
H           -3.59207579086682       -4.55950434104469        1.35367584860178
H           -3.05596013350792       -2.20301047724356        2.12642152335150
H           -2.15712025109730        0.04793517442011        2.02551218912071
H           -3.02520075307095        2.40139078857663       -1.88156258854399
H           -1.64262697584061        3.25557756605574       -1.19543110191637
H           -1.80316655512276        0.24191381351186       -1.62418552888201
H           -1.01949080106950        1.38523279240179       -2.72097163895137
H           -0.68795664925599        1.66035939209333        0.66279971353187
H            0.65442731866897        1.99100554687230       -0.95903778373365
H            2.11936797363481       -0.67079351858688        0.73243288716128
H            2.29713096578482        0.98005000478239        0.11048196626254
H            2.75842573377160        0.06290555629875       -2.16540345231543
H            2.67087945372863       -1.58146951290216       -1.50930388732238
H            4.61476669304283        1.55677142092537       -1.55527352725372
H            6.91862675340777        1.75305042093590       -0.78306051799157
H            8.64723068455803        1.80112018776770        0.81833665639919
H            9.19514819668780        1.13455514402534       -0.74674882774811
H           10.03234783156026        0.68146562751489        0.75874652153330
H            7.05083155961760       -4.24672493844137        1.64837366789720
H            5.43362138207999       -3.51638045010474        1.79506675371564
H            6.01343722747573       -4.09969417587954        0.20759920422065
H            4.39468914110656       -2.40638940578872       -0.00790189899369
H           -0.23661696343586       -1.62025844305986       -1.65108125553926
H           -1.02806387212862       -1.23284638345907       -0.10717756882583
H            0.54384848478305       -2.05391985635402       -0.11883897767656
H           -4.64592053815045        2.96783234553686       -0.18771427066062
H           -3.75621420105384        2.93462553737354        2.72083701889003
H           -4.87569680313260        1.78383366595116        1.98097351185575
H           -5.32394133369970        3.48509202791733        2.11789530420144
H           -2.60347902410334        4.70835735405574        1.25778709963883
H           -3.04004813461665        4.82918411316829       -0.45345886627491
H           -4.22692885750491        5.20149216716171        0.78855421845881
H           -0.60669158432853        2.81323421950609        2.72228904746776
