72
 energy: 117.529306105611 xtb: 6.6.1 (8d0f1dd)
N           -1.56652179921967        3.25295999153822        2.17394999003722
C           -1.58651270011830        2.43241361383223        1.22978154262160
C           -2.75160041430148        2.22261104882349        0.30858733322312
C           -3.26664331831599        0.78144785598299        0.48576256342423
C           -4.16498520658973        0.25438910480202       -0.42811659026582
C           -4.63794539059232       -1.06542147079591       -0.32842649246234
O           -5.59590161616103       -1.52510310172457       -1.18465891227264
C           -6.20662814922330       -0.63301330469933       -2.08726408805311
C           -4.17394460539476       -1.90697789258116        0.67962017771960
O           -3.33888808568551       -4.74013733810467        0.29361342969172
C           -4.25068499906006       -5.39376659107530        0.97712044190560
C           -3.27976153181959       -1.39304957189167        1.57416716017750
C           -2.86540749385646       -0.06712359711071        1.50720717718701
C           -2.17149604752213        2.44026052028767       -1.12225916569978
C           -1.30600010571760        1.29485383102609       -1.68210740980467
C            0.02070975678651        1.16742792473306       -1.04928067539082
N            0.51384377987771        0.04040990955760       -0.52950664176857
C            1.90165379689253       -0.02749322576738       -0.12857847397989
C            2.82854046480094       -0.57805779491401       -1.23482735481584
C            4.26926290585978       -0.48963437073781       -0.80333134820714
C            4.99136511091470        0.67472766722475       -0.98974113100076
C            6.31100399570225        0.77452689739351       -0.56610949416028
C            6.93004352203125       -0.29460690470624        0.05618004906126
O            8.21382299278061       -0.31383470812337        0.50418133024145
C            9.01050307456021        0.83021584822784        0.31681963158922
C            6.20129530688005       -1.48974759422127        0.25848048895708
O            6.89190302354933       -2.48355186745844        0.87684972009605
C            6.25605508287666       -3.71732095309875        1.08866671789892
C            4.88775888240868       -1.56750201899652       -0.16946660039976
C           -0.19355792576792       -1.22013510962778       -0.59569249400573
C           -3.88282100874285        3.26390174684768        0.52373594333594
C           -4.52437551289962        3.08468910382016        1.89566932632035
C           -3.41648620050135        4.71916204865257        0.37553495138511
H           -4.52003608547915        0.89472252874096       -1.22205070783912
H           -6.60932103509697        0.24777834757719       -1.57379697982245
H           -7.03049999793900       -1.16646465902123       -2.56890381106351
H           -5.52065819832561       -0.29975198786380       -2.87867876210028
H           -4.80006888216280       -4.39569401237232        1.25814871148061
H           -4.94641457112702       -6.09065540043158        0.44818603148751
H           -3.69020250024073       -6.11796369543084        1.63991860525968
H           -2.89910601970697       -2.01015868995693        2.37842114225670
H           -2.25242711133149        0.28756997985986        2.30898964635897
H           -3.00033415211215        2.58622978916911       -1.82285343557642
H           -1.56562978210928        3.35419357659906       -1.09955425036884
H           -1.86135867174175        0.36437424422888       -1.60903533577822
H           -1.14871896892357        1.51032929636903       -2.74867665402045
H           -0.72366014728866        1.79860453074134        0.92752841527047
H            0.67177407815459        2.03357511643112       -1.04462158498072
H            1.98903121971199       -0.66614690799331        0.75460147745603
H            2.23725148607727        0.97578361659805        0.14003597931360
H            2.67768949590503        0.01556789359976       -2.13902104838496
H            2.55841174616453       -1.61249752913487       -1.45227274069672
H            4.53356459399475        1.52094692039745       -1.48041379478674
H            6.84883914332117        1.69588595090130       -0.73180521443830
H            8.60400222827047        1.70299128270462        0.84072631519551
H            9.13093392231876        1.07169974987015       -0.74489349369813
H            9.98151886548557        0.57725298108536        0.73852464996029
H            7.00219043224320       -4.34909909355421        1.56821662364752
H            5.39005873983417       -3.61745887872461        1.75147106004204
H            5.94173500216237       -4.17425697726052        0.14424889982786
H            4.32417774315843       -2.47558118856381       -0.02310433928580
H           -0.37576724241609       -1.53815927293119       -1.62555788420761
H           -1.15485407124708       -1.13249724619242       -0.09134761037427
H            0.38570119800459       -1.99718156797589       -0.09491330117382
H           -4.64398609672019        3.08739476793030       -0.24639556936484
H           -3.78711784959507        3.29383896810899        2.66334349541111
H           -4.90153009004951        2.07932672399220        2.01798180836902
H           -5.35121020831411        3.78363888835154        2.01230298185592
H           -2.64639825001555        4.94916690022592        1.10570398958000
H           -3.04003674879640        4.94683011124845       -0.62428492905620
H           -4.25926958164571        5.38628005860131        0.55483856845207
H           -0.68840599539812        3.31054601425247        2.68207095506043
