72
 energy: 39.891221881042 xtb: 6.6.1 (8d0f1dd)
N           -1.54663636395245        3.43658206433627        2.09848558242304
C           -1.55293916815541        2.53504152948306        1.22432210342448
C           -2.71571615382141        2.30965864168206        0.29576817157754
C           -3.26283210166156        0.89308246212441        0.47039154677486
C           -4.21280329942365        0.40688571596965       -0.42875239651010
C           -4.72453458528056       -0.89852583748787       -0.30634008510087
O           -5.68129265145732       -1.39557364224893       -1.13273723791170
C           -6.24954267964102       -0.57503455800266       -2.11116307094312
C           -4.27860182176601       -1.78564118990226        0.70677260244437
O           -3.43403270544770       -5.82351855692931        0.32505525484166
C           -4.26651776704764       -6.17948636833230        1.13382169829870
C           -3.36380657551895       -1.24260904640212        1.60548134179514
C           -2.85540767817043        0.05450132490793        1.50488808688412
C           -2.14214995818764        2.49358533214511       -1.13809636982650
C           -1.31305760108032        1.31928190730585       -1.68624044846123
C           -0.00526799832874        1.19954917810972       -1.00859529449064
N            0.52372220074082        0.02872762081663       -0.56761162274149
C            1.88130814488952       -0.01901623611944       -0.11343835031961
C            2.80054945390123       -0.58029470657851       -1.21404652979281
C            4.23380645938611       -0.49849223346905       -0.78494439755580
C            4.95295356762832        0.66633490937836       -0.97107726530685
C            6.27553903587716        0.75998379120902       -0.56084966193672
C            6.89741018979653       -0.31396062571634        0.04811857142816
O            8.18518864608381       -0.34349176243964        0.48644167210280
C            8.98347306767848        0.79645666058354        0.30728249356313
C            6.16702564124847       -1.50910316827677        0.24966519147044
O            6.86281183406275       -2.51316591430430        0.84871938479883
C            6.23206780367456       -3.75143689597375        1.05661513074449
C            4.84887085350143       -1.58343413880986       -0.16203146180197
C           -0.24117959342924       -1.18756632333690       -0.58793094637867
C           -3.86563680445313        3.34397783158748        0.49725657596851
C           -4.52295218504897        3.23365628363485        1.87304542867364
C           -3.42454784682458        4.79390671328550        0.28257155241159
H           -4.54033610659785        1.05992176358859       -1.23456422111316
H           -6.67807727877908        0.32987922130875       -1.66776576882975
H           -7.03804189886937       -1.18205665880646       -2.54800570317340
H           -5.51641880241128       -0.30837507669500       -2.87619731447822
H           -4.59753035061562       -3.02183384874222        0.81433527560155
H           -5.31942387945343       -6.41801048963193        0.87585108125190
H           -3.99947766006034       -6.74979235652325        2.05267426242824
H           -2.98759213837771       -1.86275595890793        2.40856133141923
H           -2.16136823081730        0.41236167149752        2.25881863449362
H           -2.98011955847379        2.67546073133686       -1.81223212176628
H           -1.51430775090372        3.38880750111586       -1.14965708405415
H           -1.88937434987085        0.39888384650408       -1.60699552561176
H           -1.15025743602436        1.51355065770362       -2.75737898688707
H           -0.69510628243989        1.88593933207054        0.99622827588638
H            0.63039257596673        2.06053759960531       -0.95161055679804
H            1.95836687553142       -0.64784218403832        0.77976849974236
H            2.22146471294308        0.98599307939481        0.14952510085839
H            2.64526069283171        0.00835647834175       -2.12089871491657
H            2.52131313327630       -1.61343154107183       -1.42224069437562
H            4.49067209723779        1.51427926432036       -1.45428316218114
H            6.81148409302059        1.67902844637185       -0.72970387362281
H            8.57963849986851        1.66091315143014        0.84436563211479
H            9.10169059757637        1.04703233074823       -0.75218317699566
H            9.95546930189257        0.53827225627150        0.72457841423171
H            6.98674310065291       -4.38629606078613        1.51833872184854
H            5.37448197328057       -3.66368553714581        1.73204914100342
H            5.90842459128508       -4.20747099261935        0.11517404796917
H            4.28282949771347       -2.49113468650718       -0.01795019263823
H           -0.42142579864305       -1.50523976848445       -1.61735827886684
H           -1.20542705270628       -1.07397580582195       -0.08244898442347
H            0.31441398079078       -1.97041412282308       -0.07888943660526
H           -4.62495708658856        3.12293973120554       -0.26260482700210
H           -3.80087216785613        3.49472554515394        2.63959665185306
H           -4.89800699758707        2.23853674419278        2.05971177074294
H           -5.35371190765664        3.93772669792241        1.93392334438066
H           -2.67168391161521        5.07240183997725        1.01323380663723
H           -3.03249485610651        4.96832742658473       -0.71603953996813
H           -4.28630576411766        5.44606072418562        0.40412453381016
H           -0.68517003908018        3.55177064299936        2.62008752985727
