72
 energy: 26.798742858150 xtb: 6.6.1 (8d0f1dd)
N           -1.52889190335120        3.38939781681355        2.14377276793012
C           -1.54637723743645        2.55440154359413        1.20735360391864
C           -2.70973510111001        2.33745116367958        0.28265038394254
C           -3.27066192076279        0.92645718592883        0.45787653831238
C           -4.23174589193893        0.43595345394055       -0.42727359074462
C           -4.75866951106089       -0.85157886948156       -0.30080001468326
O           -5.71337677542355       -1.34462341365525       -1.12609797305064
C           -6.26923506652038       -0.54171579392462       -2.13026369845254
C           -4.31997141308237       -1.73192797792539        0.71860861217370
O           -3.61071939874824       -5.78546000141737        0.34686946347526
C           -4.28627491028482       -6.36790551926007        1.15660308075560
C           -3.37967979034082       -1.20666311301532        1.58690515606290
C           -2.86909236403327        0.08881405745479        1.48829470826355
C           -2.13527752308711        2.50653535322742       -1.15042435111715
C           -1.30997767858177        1.31909794290481       -1.66880339930139
C           -0.00921976499359        1.18902814113311       -0.97745858541974
N            0.53569803196178        0.01170315420669       -0.57319063049815
C            1.89383370810054       -0.02693828885754       -0.12563915629415
C            2.81945580132293       -0.58075814391594       -1.22453844671107
C            4.25155471548840       -0.49474009540521       -0.79537538565554
C            4.97005471265896        0.67042123729523       -0.98263989724937
C            6.29163828286439        0.76584398663577       -0.56831023260816
C            6.91394680824027       -0.30443334400239        0.04909851456780
O            8.20198685361594       -0.33110335427621        0.49037422606787
C            8.99664195006214        0.81088513383811        0.30486848950491
C            6.18237936498798       -1.49813081407645        0.25477334191572
O            6.87600519163518       -2.50084793885861        0.86213151679510
C            6.24166180341671       -3.73697560447619        1.07037781835773
C            4.86600427152670       -1.57478295439613       -0.16285504714853
C           -0.22622619269197       -1.20582036930005       -0.58858410780492
C           -3.85843691922234        3.36300759774113        0.49209499076029
C           -4.51197128592726        3.23751434464050        1.86771677898555
C           -3.42468222073653        4.80955549003904        0.28869561879424
H           -4.56171066503273        1.08626524490733       -1.22974434743149
H           -6.70309161639510        0.36820022462959       -1.70540751902817
H           -7.05353454083359       -1.15513646671494       -2.56997715446311
H           -5.53027793986474       -0.28818032651454       -2.89473761078144
H           -4.61683649183461       -2.82830947725345        0.79281872601580
H           -5.37390363424400       -6.58010242895482        1.01119589099854
H           -3.80228188093015       -6.98203973060491        1.95690064769024
H           -3.02468496674261       -1.81723579958051        2.40644112320733
H           -2.15965604771397        0.45526345919288        2.22158378942700
H           -2.97108476183176        2.67029520373768       -1.82627523548588
H           -1.50859354653736        3.40095617871102       -1.17780157566719
H           -1.89317949921527        0.40517475194393       -1.58707642196572
H           -1.12326177318370        1.50020230136157       -2.73813053832591
H           -0.68617585665076        1.91501914253733        0.94192125730344
H            0.64972346645372        2.03761432331867       -0.99462938699343
H            1.97251987667876       -0.65527989370129        0.76541127595743
H            2.22687073800504        0.98104488219390        0.13812770620584
H            2.66303980482515        0.01007275597650       -2.12913280568680
H            2.54362938594133       -1.61445069930672       -1.43474789719508
H            4.50722597517900        1.51580582018006       -1.47044460136743
H            6.82546175107304        1.68619742673219       -0.73933341791360
H            8.58733333428181        1.67694525663540        0.83535987226908
H            9.11430887810808        1.05578106804378       -0.75653434006724
H            9.96878867426045        0.55820613795447        0.72523543344662
H            6.99333346148572       -4.37197249516306        1.53701461050566
H            5.38083735321866       -3.64534183637161        1.74150873213327
H            5.91991957339530       -4.19426603520484        0.12881485631763
H            4.29942620870545       -2.48170065390794       -0.01545430750775
H           -0.41473345521673       -1.53200618509372       -1.61586594513034
H           -1.18683374138688       -1.09166261135536       -0.07569101167848
H            0.33233341892532       -1.98305753198993       -0.07880470401524
H           -4.61824816658974        3.14527427794673       -0.26516380220815
H           -3.79093104484213        3.48741471126987        2.63891429645628
H           -4.87320520736163        2.22282753400712        2.04279427952477
H           -5.35203427755060        3.92176273526916        1.93258304457681
H           -2.66709825253565        5.08300254972376        1.01068883758497
H           -3.03337562346487        5.00039949033438       -0.70381841232721
H           -4.28490138671849        5.45813690217827        0.43791245162757
H           -0.65463279869009        3.47359481076526        2.65268225810719
