72
 energy: 63.473335334488 xtb: 6.6.1 (8d0f1dd)
N           -1.56096264254607        3.41749793446751        2.10994674189352
C           -1.57133128109052        2.52733640723322        1.22683144480038
C           -2.73149546633212        2.28664420847765        0.30418083205595
C           -3.26097599798489        0.85728312831067        0.47765573997482
C           -4.19547392932445        0.34970579042952       -0.42441915158814
C           -4.67636105720757       -0.96929655775767       -0.31035333768441
O           -5.64411739659979       -1.44931054271351       -1.14039115309241
C           -6.22254323880369       -0.60424161978977       -2.08889152127719
C           -4.20841858801811       -1.86318909438091        0.68921053540446
O           -3.41056873666846       -5.42332913603853        0.41743510449419
C           -4.27412380200643       -5.97148292936265        1.07232809649192
C           -3.32255753043016       -1.29711264868676        1.59886966242075
C           -2.85418237006661        0.01199482126570        1.50555838994035
C           -2.15379117692033        2.48513245321906       -1.12349051839215
C           -1.31638564655013        1.32093348744234       -1.67715918948068
C            0.00928641200184        1.19004719176996       -1.03787265170335
N            0.51877993169176        0.02739385128435       -0.54352565087154
C            1.88134680283708       -0.02100399478716       -0.11083126406939
C            2.80237735708214       -0.58171278464232       -1.21543159241800
C            4.23781623128997       -0.49931089902020       -0.78934262242196
C            4.95906870870183        0.66627894608980       -0.97212858505514
C            6.28035965820109        0.76007408225035       -0.55724399181928
C            6.89930812917185       -0.31563763609461        0.05197993101407
O            8.18796523229341       -0.34212857751280        0.49168647501452
C            8.98693617966969        0.80053592228760        0.31330167563595
C            6.17177913271979       -1.51030395345176        0.25095818230604
O            6.86934680799897       -2.51191606362647        0.85333633612167
C            6.23762865102819       -3.74710864767199        1.06292837423985
C            4.85606537445672       -1.58315024115073       -0.16626130510119
C           -0.22984941823697       -1.19809040052799       -0.59027844849345
C           -3.87647286689833        3.32160178824950        0.50562957870841
C           -4.52709975418645        3.18520010540034        1.88092510796325
C           -3.42393548952128        4.77456403463070        0.31020051342167
H           -4.53664001924959        0.99741513077138       -1.22938958128315
H           -6.64825038674041        0.29304064384052       -1.62548488162765
H           -7.01644294879864       -1.19638798383670       -2.53095181295472
H           -5.49386960377016       -0.31908605184625       -2.85296388670477
H           -4.58185035268949       -3.30143086668835        0.84792262363224
H           -5.22120345857167       -6.36135118394941        0.66145556573593
H           -3.94551594320589       -6.61173582327074        1.90731177875081
H           -2.93530966636686       -1.90456399457852        2.40498582301613
H           -2.19002542438972        0.36620457223395        2.28176051020821
H           -2.98690885275851        2.65027367167121       -1.81171039634624
H           -1.52749126549927        3.38249657609384       -1.12311693502836
H           -1.89138246296084        0.40192593196829       -1.60918372576110
H           -1.15692720531166        1.53561102809153       -2.74323985637315
H           -0.72036873575612        1.86477702281485        0.99725112023936
H            0.63982334878878        2.05918490793456       -0.96759996322898
H            1.95586614758954       -0.65391746106878        0.77877544522361
H            2.22102533621919        0.98388586251290        0.15690044419255
H            2.64564824898062        0.00755921003203       -2.12175544946233
H            2.51998827903644       -1.61471082287784       -1.42476866492962
H            4.49903896004969        1.51578747947363       -1.45470542398411
H            6.81968111598906        1.67981298514943       -0.72273227333716
H            8.58587971267690        1.66965524157030        0.84747255316837
H            9.10582811699542        1.05195964243517       -0.74623843610142
H            9.95877461992980        0.54117921463148        0.73029167919690
H            6.98974136558498       -4.38034393419555        1.53175497486733
H            5.37701773016630       -3.65408042692722        1.73391952732658
H            5.91665994435591       -4.20056417964392        0.11895739199114
H            4.29220087434054       -2.49200211049087       -0.02341519164617
H           -0.41814702358361       -1.50480404351898       -1.62218567580228
H           -1.19148298354878       -1.09003660962856       -0.08631408079592
H            0.33535996448719       -1.98006214520893       -0.08512212267710
H           -4.63444969581676        3.11208857090847       -0.25562018335118
H           -3.79880870078249        3.42651027219229        2.64813428545162
H           -4.90613158121410        2.18643964653121        2.04286431970107
H           -5.35665695569146        3.88765008786582        1.96459568842612
H           -2.66393080027424        5.03340456240422        1.04198837019651
H           -3.04156666562503        4.97138727482468       -0.69510364021159
H           -4.27731844114470        5.43607503076176        0.45683894456843
H           -0.70174390987735        3.48780547072286        2.64946888645072
