72
 energy: 22.324237344606 xtb: 6.6.1 (8d0f1dd)
N           -1.51810313563714        3.33146616435215        2.17131787124178
C           -1.53766604946043        2.53850120710635        1.20003545833692
C           -2.70814661127696        2.34618693296394        0.27236782673098
C           -3.27203189524314        0.92984917090796        0.44595595261063
C           -4.23114860475398        0.43865264955432       -0.43823629902887
C           -4.75253026155606       -0.84786497497467       -0.31328894835424
O           -5.72562215951601       -1.34069586545347       -1.13498073740872
C           -6.27956647536096       -0.52126749726770       -2.14120140493467
C           -4.28341337823565       -1.69417956154351        0.69689866550884
O           -3.88434014779681       -5.66165565944902        0.48764153677007
C           -4.34474195530545       -6.55624688895396        1.14483229389062
C           -3.37210367727954       -1.19094552070149        1.60010684591165
C           -2.87196895992343        0.09849134662839        1.48259734870810
C           -2.13582504899462        2.51583410304517       -1.16405815358732
C           -1.30536813334800        1.32372382799189       -1.66941621963359
C           -0.00073979550727        1.19991461402235       -0.97892392918640
N            0.54075844808175        0.01283478519651       -0.56104432298579
C            1.90656392679140       -0.02838588943357       -0.13374170455803
C            2.83563694821879       -0.58066862488053       -1.23244224215495
C            4.26798434834389       -0.49084117388998       -0.79948697288817
C            4.98684108106311        0.67344012574601       -0.99077634101031
C            6.30715932089034        0.77109447481769       -0.57285302400847
C            6.92794717497636       -0.29590141570093        0.05067133896730
O            8.21221992365605       -0.31557101896923        0.49735217040072
C            9.00931958454602        0.82419291096216        0.30605281225797
C            6.19766519905964       -1.49014311531343        0.25789541321445
O            6.88647601663508       -2.48857672636336        0.87454365012360
C            6.25060590964726       -3.72416940674366        1.08512925635621
C            4.88220578582665       -1.56815611189368       -0.16236180863452
C           -0.20926375700564       -1.21156819806507       -0.59376854701558
C           -3.85463351262249        3.37569646794927        0.50073115673970
C           -4.50355184540316        3.20184845038837        1.87233446266505
C           -3.41460094262135        4.82528410113169        0.32413115596199
H           -4.56995605922732        1.07595311364439       -1.23950919816736
H           -6.72307086857300        0.39571095896549       -1.73657110557729
H           -7.06260925420794       -1.12802289113127       -2.59358721502749
H           -5.54059253434695       -0.26407466657650       -2.90721938576875
H           -4.62270659915115       -2.70144343105010        0.76221424082090
H           -5.40536076428575       -6.82778726790041        1.11594043457892
H           -3.72114430813906       -7.23993963715041        1.75429112165585
H           -3.03655394871792       -1.79908639546571        2.42124917943333
H           -2.16283358865172        0.45388231121738        2.21213783542474
H           -2.96661904690019        2.66850566792500       -1.85077847235134
H           -1.51169802775808        3.41166555263335       -1.19956317506673
H           -1.89260302819995        0.41019141360533       -1.58286226693413
H           -1.11347965955251        1.49649882690992       -2.73852320731985
H           -0.67003291657313        1.93107882221606        0.89399261738917
H            0.67853055562245        2.03297023636003       -1.02770106087987
H            1.98561741193092       -0.65549547163367        0.75973439183067
H            2.23690109326202        0.97887275811633        0.12952871309134
H            2.67971657760767        0.01130400923767       -2.13647724475293
H            2.56322088065267       -1.61450974635908       -1.44730116540671
H            4.52508633302354        1.51693891911941       -1.48282417771128
H            6.84231199073870        1.69027789392372       -0.74526004148115
H            8.59909731835612        1.69298081841227        0.83058096867159
H            9.12898734514573        1.06200960254230       -0.75615214943519
H            9.98143084692959        0.57467131200547        0.72921236085261
H            6.99924175261034       -4.35875655858222        1.55702481307568
H            5.38731744360839       -3.62933360973782        1.75268163311613
H            5.93249731677205       -4.18406980979805        0.14339369129579
H            4.31594915730540       -2.47512215166578       -0.01396191011985
H           -0.40206720850674       -1.55171760213836       -1.61570103028200
H           -1.16605295516535       -1.09467019702668       -0.07903134207612
H            0.35698753599362       -1.98327404981528       -0.07912152906030
H           -4.61331352864262        3.16829084151452       -0.26139729553822
H           -3.77849305514933        3.42149282532715        2.64852488521592
H           -4.86415161072347        2.18309649256342        2.00488161578000
H           -5.34414654811078        3.88175381227514        1.97035456818753
H           -2.65064058771367        5.07178614915817        1.05186707397460
H           -3.02923817815796        5.02652768625802       -0.66833377854405
H           -4.26769781337016        5.47902446655418        0.48680725418143
H           -0.65093086313562        3.39998609028938        2.69667049633986
