72
 energy: 21.017705464728 xtb: 6.6.1 (8d0f1dd)
N           -1.53348135174250        2.96942725289825        2.22739920300005
C           -1.56860346430227        2.25198456914991        1.19516082701297
C           -2.75389447382656        2.11453277095858        0.27082773807989
C           -3.31653897547744        0.68609358684051        0.40230115792967
C           -4.27610509527759        0.16796079129311       -0.45390446195769
C           -4.72784292115708       -1.16244452240800       -0.42916664078808
O           -5.73992091909174       -1.53232353179216       -1.26772501082536
C           -6.30991574632920       -0.61410899993382       -2.19335475330183
C           -4.15795582012811       -2.16374334388361        0.44920764897828
O           -4.28252618929422       -3.60801729363392        0.16432875644485
C           -4.47810759693115       -4.65093473986298        1.14998567230662
C           -3.34627302783483       -1.54868439735084        1.42162643448840
C           -2.92474716183070       -0.21078949921016        1.38578334401477
C           -2.18971013834492        2.35460549203339       -1.16424719995371
C           -1.27079902721729        1.23131866632328       -1.68681135193561
C            0.00615542704259        1.17913555020781       -0.93010259066928
N            0.58820672695747       -0.01931747057432       -0.54140492707783
C            1.96475742109100       -0.04569828220402       -0.14892783685059
C            2.89822753379254       -0.56745052953527       -1.26603542319276
C            4.32934790439736       -0.46713235990497       -0.83563795133003
C            5.04687886739609        0.69974796715790       -1.02482996042075
C            6.35932650238122        0.81065421066675       -0.58574909812197
C            6.97414641265579       -0.24808275084482        0.05880689431142
O            8.25924487617441       -0.25845608522227        0.52082012155449
C            9.04752767239988        0.88601552772762        0.31818609241576
C            6.24658474061006       -1.44106099238281        0.27136952894654
O            6.93297606365196       -2.42958880449209        0.91397669996843
C            6.29104366439511       -3.65858690499250        1.12795605587523
C            4.94056412711586       -1.53062516474798       -0.17149169655184
C           -0.11213684941661       -1.27324494550993       -0.60955592787129
C           -3.87770291189709        3.15138203311671        0.55530795937854
C           -4.50824725800705        2.90328333937310        1.92269130402845
C           -3.40531947056024        4.60716276730696        0.47700892590004
H           -4.66135155956406        0.84309231237168       -1.19906588577223
H           -6.73621635757878        0.27528871443827       -1.70982909937793
H           -7.11210801987291       -1.16104831507477       -2.69421307492955
H           -5.59898965966199       -0.28400875334405       -2.96189580375745
H           -4.69553105969059       -4.12957097909842        2.00751748114186
H           -5.25679802438519       -5.45199744921706        0.97244436183049
H           -3.56202213089590       -5.20397533436621        1.33674825717876
H           -2.99779357885562       -2.14467522542551        2.24125590841932
H           -2.21265333567910        0.13222125201406        2.12210535914667
H           -3.02281764582007        2.46942165128634       -1.86266943810257
H           -1.61572341172736        3.28842183655605       -1.16387583732099
H           -1.80518460629373        0.28785102533222       -1.62392215622165
H           -1.06893761603909        1.42081737124756       -2.75352594655723
H           -0.70273282528130        1.69998190754164        0.76278163145227
H            0.68863362432553        2.00624041241969       -1.03243810026556
H            2.07748471055601       -0.67791060516183        0.74115819685676
H            2.27563803122895        0.96900965877073        0.11390126446406
H            2.73007203382961        0.04281626513205       -2.15582383695101
H            2.63193752525660       -1.60048762968406       -1.49422722955369
H            4.58763170591269        1.53779590036230       -1.52885367654387
H            6.89507033252684        1.73169168818971       -0.75980435873875
H            8.63128572064066        1.76447891910471        0.82476491433685
H            9.17155442628682        1.11135253887827       -0.74711222005248
H           10.01751207790441        0.64483549601992        0.74891256478121
H            7.03051515599658       -4.28736505363603        1.62181678716592
H            5.41606021787228       -3.55193606662789        1.77867254947842
H            5.98567304628569       -4.12566071645130        0.18514454572943
H            4.37059572501606       -2.43313065876785       -0.01428568506661
H           -0.29162255600931       -1.60030848986435       -1.64174831033829
H           -1.07602045054311       -1.19562501788710       -0.10295274731944
H            0.48100347939079       -2.04103981610882       -0.10788192948511
H           -4.64978087293354        3.00989806677889       -0.21102091424315
H           -3.76129409981730        3.06280751511465        2.69278385319404
H           -4.88492501728873        1.88941755603997        1.99214017421373
H           -5.33505569580282        3.59314370285592        2.08395397942483
H           -2.61803961796273        4.79109298187747        1.20077313124639
H           -3.03934675200555        4.87099012533906       -0.51486910017824
H           -4.23801292221660        5.27127003151216        0.70735815754050
H           -0.63873805198555        2.99298746360857        2.70984902093391
