72
 energy: 42.193027390810 xtb: 6.6.1 (8d0f1dd)
N           -1.55008781680149        3.05012619922264        2.21743406748046
C           -1.57551353530483        2.29981415604352        1.20709030788843
C           -2.75799101922735        2.13893606950878        0.28149232620362
C           -3.30790119410429        0.70004116299958        0.43326851196040
C           -4.23331667312525        0.13323441801363       -0.42683208541641
C           -4.65823017054706       -1.21568982921089       -0.40677816108425
O           -5.68939156984497       -1.55652131958787       -1.23995713568823
C           -6.27319315452567       -0.62244819792136       -2.15488224424573
C           -4.04993433719901       -2.21782191613827        0.47088215235962
O           -3.97795731794447       -3.76637591094196        0.19082993103145
C           -4.41512121349731       -4.86181346814559        1.06772331904679
C           -3.29262525953909       -1.54469821772955        1.45375896909745
C           -2.92510790251650       -0.18918818767042        1.43032133142820
C           -2.18880346152130        2.37721201777242       -1.15416293193135
C           -1.28006247645840        1.25186839224768       -1.69185036441818
C            0.01134777791324        1.18695547198228       -0.96783593280295
N            0.56495382065928       -0.00347453891924       -0.53253712263721
C            1.94535546287672       -0.04200257450614       -0.14532997191969
C            2.87960930401225       -0.57224739963280       -1.25891242855581
C            4.31285003688632       -0.47607013097935       -0.82721477655472
C            5.03250815891305        0.69023394443686       -1.01477896095770
C            6.34677278012181        0.79868399253819       -0.57975379271415
C            6.96291651431196       -0.26331487338994        0.05814181299700
O            8.24816105720415       -0.27530989981679        0.51702973329161
C            9.03758920910252        0.86933289824573        0.31777282139267
C            6.23520788983033       -1.45652548325168        0.26761843986778
O            6.92221433242379       -2.44689883851587        0.90544991453673
C            6.28067537901633       -3.67602528502574        1.11808751784526
C            4.92731039873490       -1.54332900857179       -0.17164212540035
C           -0.13579384821731       -1.25900260242232       -0.60585804507030
C           -3.88064356757834        3.18231298186110        0.54566976607319
C           -4.51392736048814        2.95578149807576        1.91492019370075
C           -3.40901226358765        4.63919244065900        0.44810142843191
H           -4.62917072950933        0.79869864082549       -1.17446946661520
H           -6.69134568343071        0.26919038266891       -1.66658449682418
H           -7.08603600824849       -1.15908369201491       -2.65355080818598
H           -5.57311675223347       -0.29170880571851       -2.93397651483413
H           -4.84287969166972       -4.38890901173609        1.86662319444915
H           -5.19023546067448       -5.63577746303374        0.76760381527102
H           -3.57900267857635       -5.49347686817757        1.34367292505597
H           -2.96248235042426       -2.11250987673862        2.29553481279577
H           -2.24045951478567        0.17209626726828        2.17981360168112
H           -3.02159810659685        2.50325837586920       -1.85222114345497
H           -1.60435364471875        3.30602726372360       -1.14561505071147
H           -1.81622649780277        0.31055131415293       -1.61953665503912
H           -1.10071128817797        1.44228279539583       -2.76321381634617
H           -0.71051252647161        1.72449263259803        0.81220505880426
H            0.70613133827279        2.00447052317292       -1.07235439097014
H            2.05288636746855       -0.67617168381634        0.74276834008759
H            2.26448916236548        0.96795316756431        0.12011310370499
H            2.71600209520785        0.03236054373015       -2.15330207564299
H            2.61102672037775       -1.60583659976543       -1.48314683569992
H            4.57310060081196        1.52989425766754       -1.51546480361201
H            6.88261186001800        1.72083336427691       -0.75010718246823
H            8.62369241214589        1.74653123198601        0.82863771279854
H            9.16038775593659        1.09912605294721       -0.74672268228803
H           10.00806703137194        0.62537813813778        0.74566391988915
H            7.02114427817350       -4.30628467960441        1.60861089460255
H            5.40777620658979       -3.57059861304381        1.77172441180857
H            5.97256312105827       -4.13987733673629        0.17454972543447
H            4.35843162529255       -2.44681966090845       -0.01724045293633
H           -0.31730351233082       -1.58595840457046       -1.63705511827869
H           -1.09918000247605       -1.17928046954151       -0.10034859376752
H            0.45185694257696       -2.03223250279795       -0.10377043398818
H           -4.64978819706993        3.03241024405770       -0.22220037615390
H           -3.76747408484756        3.12950305948094        2.68226266537575
H           -4.89041046263828        1.94419535387990        1.99878555150522
H           -5.34042405511048        3.64879701547720        2.06473121815408
H           -2.62594724687857        4.83600886509649        1.17304524758450
H           -3.03973662198592        4.89378832768542       -0.54582725510804
H           -4.24363741805230        5.30624860068803        0.66475870640827
H           -0.65388456675163        3.08382816381980        2.69665331219968
