72
 energy: 21.085569936772 xtb: 6.6.1 (8d0f1dd)
N           -1.52050577396985        3.35926472828552        2.15219152106872
C           -1.53202097864729        2.54370318964973        1.19784373775894
C           -2.69759293036314        2.35301799249091        0.26547789772267
C           -3.26028262392343        0.94937864664792        0.44129144134797
C           -4.21794346530622        0.47585145016702       -0.45340903355454
C           -4.74694406412084       -0.80025259233250       -0.31903049907357
O           -5.69861187218259       -1.33635584847909       -1.13273903469329
C           -6.27032774153398       -0.53539170835685       -2.13505769965319
C           -4.29829018907108       -1.62952486071953        0.71012172523301
O           -4.09117086156090       -5.50464593791280        0.78367641403357
C           -4.34918877358778       -6.62893505735386        1.14436064239248
C           -3.36501488518483       -1.15689627832424        1.60564751281079
C           -2.85138699511407        0.12697142459356        1.48116804388516
C           -2.12976690202213        2.51269594164971       -1.17112829554694
C           -1.29905747393632        1.32035609829503       -1.68358261108910
C            0.01129666697356        1.19243942893016       -1.00752348027343
N            0.53551450053878        0.02068128301382       -0.53571216177855
C            1.90962679564897       -0.02806326750941       -0.13148692822314
C            2.83974955648351       -0.57928191492939       -1.23507659973644
C            4.27192350655770       -0.48874056085789       -0.80232481655198
C            4.99217996517521        0.67547745542767       -0.99548262240421
C            6.31057651005837        0.77552580681470       -0.57414984318509
C            6.92866722368166       -0.29111727533390        0.05307527783972
O            8.21525517765087       -0.31084649563347        0.49989878877056
C            9.01258948123446        0.82918234740557        0.30806837483611
C            6.19942972872867       -1.48419194776584        0.26358139137485
O            6.89122706912575       -2.47994016155533        0.88297403442016
C            6.25780502503435       -3.71467708809934        1.09842906933648
C            4.88593029027428       -1.56377913911188       -0.16009417386830
C           -0.20169038181893       -1.21245200865851       -0.59083409808046
C           -3.84955744948211        3.37132472274616        0.49571914460768
C           -4.49631787822793        3.18100132904161        1.86672524522614
C           -3.41049717887553        4.82526142573775        0.33327043497705
H           -4.54876026862658        1.11223386171672       -1.25837007011741
H           -6.71120164750997        0.37733965197343       -1.72052943071523
H           -7.05720836957635       -1.14197882593401       -2.58098980776764
H           -5.54077136643571       -0.26944662752369       -2.90790488529760
H           -4.69569594088753       -2.62816018247597        0.76849743376002
H           -5.37482416259210       -7.02841815993921        1.15736124689673
H           -3.57710339704331       -7.33206090821676        1.49321180332828
H           -3.03106939175925       -1.79143924325030        2.41302972929070
H           -2.13735274208722        0.48692310700008        2.20628046907404
H           -2.96073157865444        2.66686014315517       -1.86119361060201
H           -1.50612524877265        3.40806404924963       -1.20169066539473
H           -1.88203242218340        0.40546071860261       -1.59163802317940
H           -1.12889364247403        1.49790361604594       -2.75652819070547
H           -0.67176569875987        1.92062359479154        0.90379641016771
H            0.67998554070634        2.03522316057884       -1.02290793406397
H            1.99527855113992       -0.65676292080649        0.76056641946009
H            2.24056419097074        0.97978458061488        0.13139109051454
H            2.68418382590810        0.01189428478116       -2.13950304630287
H            2.56861039447426       -1.61415789492564       -1.44784205251294
H            4.53239343792791        1.51792230050161       -1.49066812811149
H            6.84765168746487        1.69414191229317       -0.74936315918312
H            8.60540327242285        1.70232216729676        0.82927478469508
H            9.13410996193143        1.06522271867347       -0.75466261447099
H            9.98326126131010        0.57819658943254        0.73322992285630
H            7.00766711033860       -4.34520380008067        1.57406765581594
H            5.39395389161397       -3.61770161389551        1.76493075663933
H            5.94131323362657       -4.17825598908532        0.15787901119321
H            4.32073702155505       -2.47064456087584       -0.00836579563527
H           -0.38752172499578       -1.53650354377179       -1.62022839894732
H           -1.16260586248348       -1.10507038090944       -0.08140341261925
H            0.36911848514035       -1.98639852271251       -0.08337369390723
H           -4.61022881569695        3.16335802700353       -0.26662364991015
H           -3.77208600474014        3.38843605071666        2.64730885418451
H           -4.86377101050933        2.16462313618055        1.98743485911623
H           -5.33468913075806        3.86537753687569        1.97538017446760
H           -2.64692085769673        5.06800076865852        1.06514138922434
H           -3.02530016773046        5.02152291900685       -0.66412021249507
H           -4.26482721719014        5.47837277255838        0.49689946006489
H           -0.65644908274033        3.40464521569070        2.68882283937572
