72
 energy: 23.516858492252 xtb: 6.6.1 (8d0f1dd)
N           -1.51986772126702        3.35585885777777        2.16006069749496
C           -1.54206836740692        2.55127584462610        1.19989608797595
C           -2.70970750317160        2.34734592743178        0.27572948342834
C           -3.27664210090579        0.93442012733196        0.44691147963696
C           -4.23714976139470        0.42960561345224       -0.42958752370648
C           -4.75954310174869       -0.85516297916953       -0.30349791883483
O           -5.72403056167414       -1.33960876452196       -1.12732648260382
C           -6.27522549789120       -0.53030802287064       -2.13652864030733
C           -4.29141586624176       -1.71535026056681        0.69904678039205
O           -3.74358216405891       -5.71124534882124        0.39625302543663
C           -4.32086396189907       -6.45399422246796        1.14594333402067
C           -3.38235209573277       -1.19324063047915        1.59638749714978
C           -2.87662861370339        0.09935400254783        1.47839653276141
C           -2.13644504557844        2.51360317506857       -1.15833730212242
C           -1.30783515951294        1.32321500190543       -1.66195992025696
C           -0.00539042111873        1.19226681525309       -0.97330107457466
N            0.53930758236104        0.00876611619642       -0.56810218958937
C            1.90049347042274       -0.02780744709022       -0.13019216857340
C            2.82844503551342       -0.58088070619666       -1.22794400524610
C            4.26022627134493       -0.49307058302890       -0.79686977115234
C            4.97876552537505        0.67157191442887       -0.98671675736613
C            6.29986411634090        0.76769294857163       -0.57082505016400
C            6.92163768935981       -0.30074302406526        0.05007409380268
O            8.20794529276508       -0.32374879417546        0.49422661164877
C            9.00332539130219        0.81750888735140        0.30537785915024
C            6.19053803634268       -1.49470565313665        0.25712982289300
O            6.88164585013878       -2.49602532460264        0.86966406867247
C            6.24531936821370       -3.73126102546609        1.07902485240986
C            4.87439075456415       -1.57159599520159       -0.16135699334256
C           -0.21746766052298       -1.21206832106121       -0.58847768040963
C           -3.85714275848486        3.37235831922798        0.49737415621150
C           -4.50791517156869        3.22018087429878        1.87090428311372
C           -3.42053650611233        4.81974391034323        0.30564570998069
H           -4.57329330414072        1.06899415519102       -1.23107059195062
H           -6.71368222661651        0.38179006330182       -1.72041864000625
H           -7.05795073001646       -1.14235700134148       -2.58183727897215
H           -5.53483457275592       -0.27705058327611       -2.90143815882912
H           -4.61567523606267       -2.74257531088720        0.77717882590254
H           -5.40074914461651       -6.68972966876615        1.06361137820311
H           -3.76860914346509       -7.11559003834404        1.85648896822274
H           -3.03973970455483       -1.79767305410474        2.41748962132871
H           -2.17074114599143        0.47427985011753        2.20460306462250
H           -2.97215665190385        2.66543317944553       -1.83872913471547
H           -1.51117149974415        3.40797202292444       -1.19325184694494
H           -1.89354563874041        0.41244176178313       -1.57867966399402
H           -1.10814717474052        1.49580674095457       -2.72908991563358
H           -0.67792355074501        1.92512248987014        0.91433914291861
H            0.66350424098213        2.03284801624745       -1.01186222890037
H            1.97912349851766       -0.65759232005084        0.75997424931613
H            2.23218545118655        0.97975584645966        0.13389779730932
H            2.67232702790421        0.01025861150220       -2.13240780020314
H            2.55380220870032       -1.61452635440639       -1.44047474273885
H            4.51631183706132        1.51546867278922       -1.47747579091569
H            6.83418800606436        1.68759955746953       -0.74263626374075
H            8.59276472421840        1.68520842265357        0.83233161221891
H            9.12194077569525        1.05818806778644       -0.75675401628639
H            9.97544512558663        0.56675531470618        0.72743575223712
H            6.99519399223124       -4.36659230032978        1.54814472973781
H            5.38301607782505       -3.63722035284126        1.74806922151121
H            5.92494057359360       -4.18986102832392        0.13756947620934
H            4.30815724824384       -2.47886059731127       -0.01363321842016
H           -0.40855653299774       -1.54452466148510       -1.61305541710080
H           -1.17637994603261       -1.09549035602532       -0.07544287155101
H            0.34511160862349       -1.98590578339657       -0.07689197377223
H           -4.61490167264296        3.15923176991482       -0.26223986061512
H           -3.78336680781863        3.45486517948372        2.64403571179921
H           -4.86774649752140        2.20117038253004        2.02553648373626
H           -5.35111292705133        3.90084814138521        1.95431433765273
H           -2.65828058406534        5.07319614456236        1.03080127524053
H           -3.03106218282243        5.01365059629405       -0.68693861427530
H           -4.27649345596675        5.47302207654133        0.46065910503910
H           -0.64790877277329        3.43662734473630        2.67475368484695
