72
 energy: 32.769380971243 xtb: 6.6.1 (8d0f1dd)
N           -1.54094279476749        3.41653423508480        2.12677072331544
C           -1.54851328420472        2.54780429198932        1.21830818728356
C           -2.71035024440627        2.32456905118207        0.29018287222397
C           -3.26410178876011        0.91235770427713        0.46609670934988
C           -4.22105105073007        0.43260697027181       -0.42744147694074
C           -4.74400239705929       -0.86551913408551       -0.30638617039999
O           -5.69642680289490       -1.36663478660315       -1.13168185274843
C           -6.26114663719702       -0.55741674434488       -2.12260285193066
C           -4.30978415568645       -1.75532486992060        0.71312992674940
O           -3.49509563363363       -5.89899443113077        0.27708393474455
C           -4.25646382014108       -6.27507847439862        1.14393051221345
C           -3.37388124870483       -1.22356269245115        1.59151298449292
C           -2.86102598168142        0.07339083202848        1.49845467325891
C           -2.13669159694730        2.50045573951606       -1.14350760595965
C           -1.31194733155675        1.31890528065787       -1.67808130983497
C           -0.00693436766973        1.19343278178533       -0.99593845795270
N            0.53206606220063        0.01981776860302       -0.58084352869639
C            1.88747540544038       -0.02349318377627       -0.12041807981901
C            2.81091313553274       -0.58053817287482       -1.21973903272024
C            4.24357112719199       -0.49666213064158       -0.79148447968665
C            4.96196924950980        0.66858354287361       -0.97783325105389
C            6.28365210718885        0.76357664801831       -0.56478400659667
C            6.90577868943142       -0.30864530639846        0.04832412551154
O            8.19404161153697       -0.33688615372551        0.48717457087709
C            8.98975390778005        0.80455334441626        0.30521608393443
C            6.17512786893837       -1.50321309320823        0.25172508401038
O            6.87001108451408       -2.50629611065816        0.85522171956038
C            6.23737258154350       -3.74357234290794        1.06293794315019
C            4.85808552474135       -1.57897060750349       -0.16351728055843
C           -0.23481587376663       -1.19571258928621       -0.58881177432005
C           -3.85989658874175        3.35254237080382        0.49219272368560
C           -4.51785199949497        3.24191091978499        1.86842171850730
C           -3.42444801691402        4.80114452130312        0.27608928249703
H           -4.54876504191216        1.08959687915992       -1.22906448849930
H           -6.69169065956770        0.34987698920500       -1.68801781508174
H           -7.04761660693294       -1.16802588824304       -2.56013535886544
H           -5.52537241672272       -0.29810955495527       -2.88697731556329
H           -4.60941470469361       -2.91768182328140        0.80072934526178
H           -5.35054923454187       -6.45833407438565        0.98381586477935
H           -3.88414013423700       -6.85633682372134        2.01316158958992
H           -3.00807084146954       -1.83951148612479        2.40478961808986
H           -2.15598944028181        0.43400385573601        2.24064558975930
H           -2.97176338266930        2.67902470647537       -1.81705803157793
H           -1.50891982630891        3.39512635890672       -1.16279164255069
H           -1.89024852214528        0.40018905033626       -1.59592956559276
H           -1.13760302490453        1.50589661096401       -2.74865671484683
H           -0.69085311901881        1.90341813058626        0.97096260978296
H            0.63985901177066        2.04882027712015       -0.97406106112924
H            1.96476874622208       -0.65200021571793        0.77249716473411
H            2.22286223563895        0.98336148389498        0.14296813716129
H            2.65425233263005        0.00942929565382       -2.12517939758359
H            2.53317411587618       -1.61386624044582       -1.42898688741666
H            4.49923955358041        1.51526594016959       -1.46320857512707
H            6.81804459139230        1.68336167990906       -0.73491895849072
H            8.58248225035607        1.66881111844128        0.83965791066731
H            9.10693813551150        1.05284275713895       -0.75512437942050
H            9.96208873448989        0.54955562950251        0.72365184883775
H            6.99060883117276       -4.37854319305882        1.52688028962214
H            5.37820850699383       -3.65421267660666        1.73635468573976
H            5.91456209376801       -4.19986201484562        0.12128814683834
H            4.29144979658367       -2.48586043993767       -0.01738756046014
H           -0.41891642369604       -1.52034320100494       -1.61634734795090
H           -1.19723436422482       -1.08128646054372       -0.07786438271451
H            0.31885286170420       -1.97574968665201       -0.07809974961855
H           -4.62048589905504        3.13273829696854       -0.26577610881373
H           -3.79937946781807        3.51342633121174        2.63508768463292
H           -4.88208137048112        2.23735241189008        2.05695785848144
H           -5.35089471565751        3.93931734397227        1.91839334511922
H           -2.67101681787039        5.08839253649853        1.00059718449181
H           -3.03181777766994        4.98303120760570       -0.71632899836336
H           -4.28758041390369        5.44678838703310        0.41336918313248
H           -0.66975182111012        3.51351245765151        2.63778337001613
