72
 energy: 96.242485410850 xtb: 6.6.1 (8d0f1dd)
N           -1.56544472052183        3.16770130990017        2.19637297347472
C           -1.58647485732068        2.37956403919161        1.22284638218498
C           -2.75753634824092        2.18621255696409        0.29888283232760
C           -3.28295986405642        0.74210382904211        0.47326585475567
C           -4.17767418237438        0.18451091300584       -0.41945226581869
C           -4.61316194185436       -1.16012496900565       -0.36098088415322
O           -5.61616344996463       -1.55722764160623       -1.20273152837297
C           -6.22569216191901       -0.63315025548846       -2.10622783821822
C           -4.06848442562769       -2.05717068832171        0.58581227723313
O           -3.63281382056585       -4.25407267656114        0.32220985519027
C           -4.32960674234794       -5.21275302421982        1.00739387043017
C           -3.26808725742155       -1.46222296786969        1.53244349982879
C           -2.89671565296509       -0.11861435070182        1.49088067905283
C           -2.18001728765915        2.41416960707854       -1.13436551258576
C           -1.29739379857983        1.27767812512630       -1.68740827491342
C            0.01927666998478        1.17461339456828       -1.02540853263070
N            0.52862384309109        0.02681334340675       -0.52368167562364
C            1.91839062362180       -0.03263919359971       -0.13629675787493
C            2.84739393690188       -0.57572128240744       -1.24488879252840
C            4.28660826816124       -0.48457378037221       -0.81245124430623
C            5.00798254110981        0.68013944201780       -0.99942403875594
C            6.32582610542205        0.78342954382191       -0.57117573680872
C            6.94399818177037       -0.28290268791102        0.05702557216177
O            8.22750996562790       -0.29884031681171        0.50955564653254
C            9.02165096660998        0.84554395037956        0.31747370821413
C            6.21540896495898       -1.47732271377292        0.26197890029615
O            6.90380613111789       -2.46915578736953        0.88861762660570
C            6.26558032011065       -3.70118742187013        1.10078204552075
C            4.90382476586223       -1.55843144070523       -0.17081105031619
C           -0.17179296395518       -1.23560538012517       -0.59929416390453
C           -3.88346097298003        3.23052094372315        0.53241911074283
C           -4.52077384855614        3.03257195085307        1.90345401223711
C           -3.41329863722913        4.68676316545418        0.40532885178368
H           -4.54761817374099        0.83359903141555       -1.19904152978640
H           -6.63538061837708        0.25567955830096       -1.60683448625386
H           -7.04921643468795       -1.16025964510247       -2.59827142259660
H           -5.54065591814041       -0.29760200118970       -2.89784984852002
H           -4.97595077532116       -4.54753697819694        1.52398282827748
H           -5.04987749392470       -5.92483328437782        0.51719176544849
H           -3.60966503262074       -5.94256684221223        1.42615885885306
H           -2.91844153775397       -2.05455060329627        2.35422657560470
H           -2.26216777566455        0.24427835981949        2.26980270817212
H           -3.01012727546671        2.55300738103935       -1.83451607279609
H           -1.58225266411227        3.33379600166672       -1.11585557026557
H           -1.84303496529506        0.34243180256376       -1.61189276853138
H           -1.13492212001501        1.47946601242150       -2.75825168780218
H           -0.72074100192667        1.76843711390449        0.88446411089466
H            0.69346171288325        2.01741444984654       -1.07487813664767
H            2.01384653255918       -0.67035634153181        0.74790915846621
H            2.24868132270888        0.97256496086002        0.13171344859356
H            2.69333130360485        0.02090394770560       -2.14627121255493
H            2.57923291987275       -1.61016941186736       -1.46475203550759
H            4.54982630387212        1.52387947403474       -1.49402048402716
H            6.86274240568158        1.70541181480329       -0.73814443141015
H            8.61218115508596        1.72008544456017        0.83613398141597
H            9.14315103769569        1.08223076454267       -0.74532408310904
H            9.99231417946475        0.59600499044426        0.74172520541709
H            7.00900802485186       -4.33245156235457        1.58519387387810
H            5.39679275799547       -3.59884220699813        1.75979522854890
H            5.95401454487365       -4.16061004405253        0.15649825356349
H            4.33842830868578       -2.46478992899914       -0.02130097920246
H           -0.35191083438601       -1.55642080265162       -1.62982685660097
H           -1.13387901512149       -1.15337023012640       -0.09562067597953
H            0.41050045675016       -2.01227288274247       -0.09892818101897
H           -4.64750577820246        3.06487376043515       -0.23718823423290
H           -3.77895626799005        3.22707273683643        2.67025428049350
H           -4.89734651459820        2.02460581223829        2.00917918556016
H           -5.34680133901613        3.72956684042273        2.03444620150479
H           -2.63791937184895        4.90319029440737        1.13361008539996
H           -3.03987935601206        4.92690850733873       -0.59179414471052
H           -4.25192463294450        5.35490058094785        0.60044714986615
H           -0.67709514913274        3.21852016410966        2.68824730487847
