72
 energy: 4.608244739409 xtb: 6.6.1 (8d0f1dd)
N           -1.51709331917649        2.88853104365750        2.23540530569876
C           -1.56130648124627        2.20797749052737        1.18023424624232
C           -2.75006340813901        2.09292890617666        0.26095212003036
C           -3.31942159227560        0.67365409981828        0.37244620846708
C           -4.30011880926082        0.20686932861791       -0.49393720787710
C           -4.78673322546550       -1.10076744260965       -0.46036716939671
O           -5.77615094346258       -1.51369249317280       -1.30451721211046
C           -6.34499567896679       -0.61109148718401       -2.23400807651000
C           -4.26526226444072       -2.08194803064166        0.44563360494143
O           -4.58339217532142       -3.44582823223236        0.21542588216231
C           -4.54986488571435       -4.42621776811818        1.24881197523009
C           -3.39716948438014       -1.54035064879187        1.39759507464812
C           -2.91629147006673       -0.22781560189166        1.34305598802727
C           -2.19054390522082        2.33200600747897       -1.17215564879932
C           -1.26547969616413        1.20743889727247       -1.67773921767577
C            0.00738224190368        1.15296808692089       -0.90978537417174
N            0.61000864670759       -0.03905978420330       -0.53743567479057
C            1.98519259301915       -0.04678967465146       -0.15039178671704
C            2.91620375631252       -0.55985414410072       -1.27190398948080
C            4.34468232952188       -0.45569849108683       -0.84085353863276
C            5.06025152700874        0.71107371446212       -1.03374327355388
C            6.37129706230291        0.82302734535397       -0.59223686710124
C            6.98439530931578       -0.23263983819148        0.05881057030990
O            8.26787147961494       -0.24016393770422        0.52425191114360
C            9.05671238419477        0.90289413171181        0.31871578472619
C            6.25700548860284       -1.42527186778943        0.27507099308916
O            6.94225092066667       -2.41147287410587        0.92186819796231
C            6.30134349602357       -3.64114477970889        1.13800653637420
C            4.95248107555947       -1.51685202328995       -0.17005519342187
C           -0.08764519395942       -1.29002855259288       -0.61124473366558
C           -3.87454584293253        3.12273149306916        0.56590923485972
C           -4.50288874444175        2.85268644717798        1.93064415323320
C           -3.40146832999128        4.57722432494547        0.50564091194973
H           -4.66241433559494        0.89257775354129       -1.24055836773523
H           -6.78137294230203        0.27095362793625       -1.74883562850838
H           -7.13716184151583       -1.16946946507136       -2.73490728631509
H           -5.62720262715863       -0.27667530129094       -2.99319461622849
H           -4.72984471961848       -3.89622488786763        2.13484901406158
H           -5.28640765264393       -5.25808972999639        1.11550017586560
H           -3.56745791583703       -4.88683409324225        1.34355485393716
H           -3.02831881484851       -2.17286148814016        2.18441391270763
H           -2.18512321726295        0.09341268142108        2.07103036817191
H           -3.02371890106920        2.43435507674254       -1.87166185069101
H           -1.62750479152062        3.27034132404517       -1.18013964373604
H           -1.80204799787649        0.26351582263124       -1.62485716859888
H           -1.04328530284909        1.40151800777675       -2.73793845486738
H           -0.69564766043838        1.67866105005703        0.71357898538254
H            0.67022907768094        1.99856123548689       -0.99361969356705
H            2.10463285057365       -0.67821275314311        0.74008441159426
H            2.28704941499282        0.97197617533330        0.11139658589226
H            2.74416289517512        0.05300911480401       -2.15931254916159
H            2.65225998712652       -1.59249707614576       -1.50266153625221
H            4.60182863230036        1.54678951015749       -1.54227859717443
H            6.90762792148932        1.74212726433489       -0.77112968024941
H            8.63886255261833        1.78271147682307        0.82117864590108
H            9.18301894973442        1.12335491128707       -0.74719878036496
H           10.02566726945115        0.66376642599419        0.75325640288179
H            7.04037139049066       -4.26775842884118        1.63523652394959
H            5.42467022554008       -3.53396648407331        1.78637154817275
H            5.99922033758903       -4.11220436139142        0.19613919575613
H            4.38275758825097       -2.41948353657023       -0.01112353400058
H           -0.26413646923272       -1.61194879745766       -1.64562857547040
H           -1.05245366010885       -1.21448891038386       -0.10445374224636
H            0.51113294455213       -2.05190576240917       -0.11171510634708
H           -4.64867200763859        2.98922637965208       -0.19944810866586
H           -3.75748410202873        2.99850765364916        2.70513109916840
H           -4.87966942318039        1.83668473062057        1.98547249108731
H           -5.33018177755510        3.53913010345005        2.10164602372583
H           -2.61052802943478        4.74954876989549        1.22846107168941
H           -3.03949608982188        4.85040026878200       -0.48429172074970
H           -4.23252736069390        5.23778701468148        0.74870265003639
H           -0.62419581383951        2.90290847007052        2.72293737285185
