72
 energy: 107.821345623867 xtb: 6.6.1 (8d0f1dd)
N           -1.56596073935284        3.21034610651330        2.18516995194916
C           -1.58726966992840        2.40528339650676        1.22727711695801
C           -2.75472912914075        2.20399273522753        0.30419830313741
C           -3.27474947011520        0.76110710294977        0.48187160671650
C           -4.17149686603414        0.21974822133767       -0.42151114000274
C           -4.61944522342989       -1.11541812784185       -0.34664117586831
O           -5.59958284593935       -1.54331899818400       -1.19478594778028
C           -6.21433371486141       -0.63366245585137       -2.09560923054066
C           -4.09658386903100       -1.99062287774938        0.61675282195339
O           -3.50417612385017       -4.45063752820064        0.30568571622593
C           -4.28081481589618       -5.31493497835002        0.99869605209339
C           -3.26982400135119       -1.42926629887242        1.55189017140660
C           -2.88341523698644       -0.09282533312308        1.50260776294353
C           -2.17633319394059        2.42693316921264       -1.12773536881990
C           -1.30244424873322        1.28611108612409       -1.68385075205502
C            0.01979806040123        1.17188018302078       -1.03833926831280
N            0.51963473515928        0.03605538927431       -0.52825287322926
C            1.90927116082932       -0.02906343581886       -0.13312157319628
C            2.83755765655838       -0.57667068435815       -1.23993598720607
C            4.27785851369979       -0.48704833355557       -0.80762242479485
C            4.99972401986425        0.67735205780752       -0.99447727826801
C            6.31851853060003        0.77886531440982       -0.56856208987854
C            6.93718129851171       -0.28887566353739        0.05667740893522
O            8.22060913453116       -0.30631707678480        0.50699099614415
C            9.01615887501884        0.83788671625382        0.31722912812163
C            6.20847791585269       -1.48372510151037        0.26021968441438
O            6.89792638784482       -2.47646514837175        0.88271620482356
C            6.26082657342755       -3.70934375162766        1.09471162592810
C            4.89585404872228       -1.56307608021002       -0.17021690796878
C           -0.18317180448287       -1.22704943580513       -0.59774555927351
C           -3.88327456053349        3.24709505168549        0.52817618112506
C           -4.52270826811074        3.05859548657567        1.89957573299846
C           -3.41475066603305        4.70286243945254        0.39056092639544
H           -4.53035179632779        0.86335378617457       -1.21082955511567
H           -6.62034771050831        0.25163475502872       -1.58910480156248
H           -7.03922383069777       -1.16287767336568       -2.58205480752615
H           -5.53101929336951       -0.29825920495787       -2.88875006351167
H           -4.87201607511072       -4.50669407408440        1.41410486790077
H           -4.98701594684497       -6.01480491278619        0.47939123898594
H           -3.59555119173966       -6.03307476806639        1.52184627397924
H           -2.90579735029298       -2.03372141961979        2.36529711243391
H           -2.26281775724622        0.26465837874086        2.29450317654568
H           -3.00571512762608        2.56950638300466       -1.82839378346103
H           -1.57453378397247        3.34370484877615       -1.10707799983104
H           -1.85223801532940        0.35301394486197       -1.60996795995082
H           -1.14167182265714        1.49453549070739       -2.75205053000331
H           -0.72293286910164        1.78170717419696        0.90756598910160
H            0.68181159360648        2.02811039736673       -1.06171086222090
H            2.00030168496974       -0.66778430376739        0.75030584184125
H            2.24310791654868        0.97472611613900        0.13581227291042
H            2.68571864580233        0.01786504969388       -2.14312599825069
H            2.56878006839137       -1.61127843677396       -1.45839564235741
H            4.54184411986322        1.52230432500234       -1.48723142470019
H            6.85587820036865        1.70059468314767       -0.73472101229019
H            8.60818785083788        1.71157256620997        0.83848083288033
H            9.13706305667106        1.07693898436437       -0.74504153616161
H            9.98699861604394        0.58662599288695        0.74019861619594
H            7.00548532072502       -4.34090414796840        1.57682907798064
H            5.39339371431481       -3.60810160309974        1.75554291569619
H            5.94790523380430       -4.16741991913966        0.15030329398923
H            4.33151731396798       -2.47040889526370       -0.02251177225581
H           -0.36447919509767       -1.54711795535066       -1.62768518568033
H           -1.14472896429845       -1.14304096536897       -0.09350448824926
H            0.39798958601518       -2.00384806255098       -0.09730457118657
H           -4.64569770467933        3.07598558127420       -0.24182963856954
H           -3.78319518432855        3.26033489582084        2.66682836412031
H           -4.89952970395396        2.05192404947183        2.01335684608061
H           -5.34900046512359        3.75662885013838        2.02350893454050
H           -2.64216059692599        4.92606924514598        1.12002061333501
H           -3.03978490228111        4.93688994402217       -0.60788195200593
H           -4.25529905132956        5.37070831227975        0.57766678953335
H           -0.68289460132106        3.26482197023397        2.68539142045285
