25
 energy: -42.012621990757 gnorm: 0.001914915660 xtb: 6.6.1 (8d0f1dd)
C            3.26596886285222        1.17006130516065       -0.15724602187479
N            2.31076667311450        0.10000911527650       -0.01756607571771
C            2.62105603651717       -1.19243158720483        0.01754018918784
N            1.51974640930871       -1.92859567067491        0.15664313387388
C            0.40244099632115       -1.06860219575893        0.22579179065382
C            0.96205541467741        0.23726225979734        0.10630383181838
C            0.21599062440865        1.50381248385011        0.09680764567580
O            0.75128136768081        2.60209252463003       -0.04946830585032
N           -1.08881350638884        1.30704969636311        0.25053670213644
C           -2.06958182232267        2.28922050853167        0.32372693574624
C           -3.30147737533021       -1.47340815369157       -1.83418674766283
O           -3.74985082825942       -0.44103026905162       -1.80301719142488
N           -0.83625485585604       -1.34522172566291        0.36324778294971
C           -1.44011480921358       -2.60784628880397        0.42691223107758
H            3.91250269978184        1.21308756890340        0.71958956017886
H            3.88037409412951        1.01091634817814       -1.04264891730346
H            2.72444994780812        2.11315405523733       -0.24882338580439
H            3.62104453462498       -1.57978986632857       -0.05620701324607
H           -1.65707260905087        3.30701429900371        0.31670502287074
H           -2.76370383106429        2.17505059756667       -0.51732073781003
H           -2.65032036969036        2.14073656104530        1.24145280020760
H           -0.76155622019453       -3.46431877393352        0.49138917725347
H           -2.07713108670965       -2.70374874190335       -0.46743047852559
H           -2.12863024044213       -2.61010561862446        1.27594768901591
H            1.49726140737954       -2.93612989040198        0.21249200047681
