25
 energy: 0.000000000000 xtb: 6.6.1 (8d0f1dd)
C            3.23720132972391        1.16630909158653        0.08434468864950
N            2.29877796055224        0.07527476373246        0.03981602671198
C            2.58028186251803       -1.21425391179017        0.03006175752192
N            1.43813944744728       -1.93419254010258        0.00098261751768
C            0.39035684826767       -1.05887462812143       -0.00790371763344
C            0.93510047688824        0.21347817468824        0.01709077332874
C            0.09450143016486        1.40504290868848       -0.00410946993748
O            0.49712746915594        2.54126690785742       -0.00342325656480
N           -1.25076628431515        1.06271869620815       -0.03085477937476
C           -2.21907191394203        2.15522079838987       -0.05001256521996
C           -1.81739470187490       -0.20012724136556       -0.04692818139228
O           -2.99983858926755       -0.37846413507442       -0.07008877579474
N           -0.92618577614240       -1.30210203518959       -0.03682761236648
C           -1.46982251276835       -2.64643077634382       -0.06029819901142
H            3.71247229913541        1.21471443890471        1.06488839270555
H            4.00791460421487        1.03430799217987       -0.67357688121503
H            2.69909982127087        2.09770098766290       -0.09130154035862
H            3.56654087521359       -1.63682977417947        0.04233139674524
H           -1.67107945562430        3.09322822573871       -0.02552706696334
H           -2.82428927394145        2.09428605349656       -0.95318074103337
H           -2.87644002486466        2.07745706351925        0.81450059976605
H           -1.17061985538665       -3.19584861009707        0.83242224714061
H           -1.14560246782873       -3.17511580834413       -0.95688266944647
H           -2.55549768731684       -2.55659960601237       -0.07459039105944
H            1.38130842369251       -2.94313824728853       -0.01389874052104
25
 energy: -5.552499231459 xtb: 6.6.1 (8d0f1dd)
C            3.28925279998654        1.16336252158478        0.10202207240325
N            2.31959266138495        0.11349334033986        0.02683567187973
C            2.60056487476579       -1.24639321405872        0.02445390883705
N            1.40087274118014       -1.92478961721662       -0.01779264018360
C            0.39546383206426       -1.02927368172792       -0.01267143044896
C            0.91973979496340        0.25502090714619        0.01806421008306
C            0.07766954669180        1.39405338919542        0.02878313444875
O            0.44594612867994        2.57330204098789        0.01379913426761
N           -1.33086164831522        1.05698543730870        0.00538997515127
C           -2.29134029613344        2.15302311222882       -0.08559097551078
C           -1.85706490969570       -0.19430226659205        0.02584230063579
O           -3.05022585041412       -0.40972535300349       -0.00189963477732
N           -0.94671519472178       -1.27216785625441       -0.00446151954442
C           -1.44521640553720       -2.62716245466815       -0.06689567004732
H            3.73728845882716        1.23456917884212        1.10761227032167
H            4.09601083630647        0.99333885535087       -0.61975742796709
H            2.79211908228819        2.10016207972173       -0.13327932234459
H            3.56985813121476       -1.69127894277852        0.03110200766225
H           -1.70840462493874        3.07251651717646       -0.10185928593247
H           -2.90462750515701        2.07811079822905       -0.99023221040575
H           -2.95541424546129        2.14281493321309        0.77986038205817
H           -1.09298505877995       -3.20945929794088        0.78875488048614
H           -1.14754738081513       -3.11993912371560       -0.99826675979048
H           -2.53115280171892       -2.56240917749085       -0.02262436061635
H            1.32266165673099       -2.92958011840921       -0.02972531958741
25
 energy: -1.884906190034 xtb: 6.6.1 (8d0f1dd)
C            3.33505900485688        1.14584617179754        0.12214034322183
N            2.33687023583372        0.12084574118650        0.01318951801724
C            2.59478646059914       -1.25803516301521        0.01037393299999
N            1.37553927139422       -1.90394030323408       -0.04238098773378
C            0.38890574167340       -0.98995959854654       -0.01248997315217
C            0.92051462495633        0.29246497768387        0.02474287358188
C            0.05073582521796        1.41778374947390        0.05358857277172
O            0.37650212175556        2.60212259836910        0.03389741501393
N           -1.39493139316904        1.07032267726423        0.03717089492743
C           -2.36199970728071        2.16221782540805       -0.12644302505331
C           -1.89175028233122       -0.18895035919269        0.10263654020986
O           -3.07638095361000       -0.43932470533336        0.09454986148885
N           -0.95175034400134       -1.24302545471277        0.03296594252958
C           -1.41672275162321       -2.61267743444606       -0.07173092794215
H            3.74157946365483        1.25028046259093        1.15595025329246
H            4.17502224440990        0.92904310359242       -0.55238788843911
H            2.88853093959893        2.09040809807407       -0.17690470676121
H            3.55225654413076       -1.73917751243552       -0.00077142300898
H           -1.76571050752660        3.07320918123343       -0.18788678607766
H           -2.98130834388980        2.05017132323700       -1.03008855247835
H           -3.02883253561527        2.21304980217029        0.73676498841888
H           -1.01688238786600       -3.22725179281912        0.74195260046882
H           -1.15574902850487       -3.05928732163576       -1.03977455060293
H           -2.50216726269493       -2.58068390596125        0.02961350717411
H            1.27380775627422       -2.90813922106585       -0.06428713775413
25
 energy: 4.275723064731 xtb: 6.6.1 (8d0f1dd)
C            3.37379839644090        1.12421272432302        0.13289090668852
N            2.35674656933684        0.11901176264001        0.00310177024795
C            2.59409690547044       -1.26473895299189       -0.00560470049700
N            1.36666563514127       -1.88339724808294       -0.07065946479822
C            0.38831910330838       -0.95516951222766       -0.01518369701268
C            0.93142345592691        0.32264201431599        0.03963931336689
C            0.03631591894051        1.44295245725596        0.07608051219531
O            0.31655613020542        2.63093725800506        0.05548864725700
N           -1.46022673573774        1.08767065424917        0.03123489128128
C           -2.43367609970363        2.17286136476399       -0.16786876817940
C           -1.92532171508234       -0.17507765234105        0.16949013882025
O           -3.09717754200998       -0.46902227316625        0.19338443997414
N           -0.94704199713856       -1.21271778266865        0.06182149576277
C           -1.38713086352715       -2.59563869382194       -0.07808666801261
H            3.69579952395718        1.24709482057174        1.19007819019148
H            4.24994191202394        0.86475841527760       -0.48297046959513
H            2.98423447100901        2.07608814455122       -0.22379536592005
H            3.53519117371455       -1.78645931532544       -0.03550627307308
H           -1.82493860319601        3.07513545107904       -0.26874536364334
H           -3.06951509922368        2.02465087279302       -1.05793888288540
H           -3.09663978558776        2.28010306616703        0.69584384069926
H           -0.94256661275857       -3.23850124532398        0.69345678744950
H           -1.16522101689193       -3.00081587366678       -1.07810805759530
H           -2.46875222866276       -2.59695277232665        0.08014588130393
H            1.23080736927767       -2.88565904806807       -0.10120648595662
25
 energy: 11.464916152144 xtb: 6.6.1 (8d0f1dd)
C            3.41475652504117        1.11243971837659        0.14780998151553
N            2.37472583782721        0.13189825905761        0.00507735928881
C            2.59763236374913       -1.24048982376677       -0.01434490366073
N            1.38136184634957       -1.86494567095246       -0.10478901824371
C            0.39934180505952       -0.94341775259745       -0.03162724458700
C            0.94176801758574        0.33956922154841        0.04940786897158
C            0.02668079405462        1.43722895993883        0.07595221957759
O            0.27913391535461        2.63411515219995        0.09230364585052
N           -1.51368050341496        1.10288658219665       -0.00038816851404
C           -2.50297620851009        2.18048960476685       -0.21077855023176
C           -1.94819858831557       -0.15704232722400        0.21810772418505
O           -3.10446665403781       -0.49655361293054        0.28402319025614
N           -0.93454530730981       -1.19901841104480        0.06166519857936
C           -1.35977759331471       -2.58497914990440       -0.08906883455347
H            3.66476810763626        1.27563443063553        1.22187105954125
H            4.32096744346027        0.80479916258639       -0.41048454306533
H            3.08113189319168        2.06202501262871       -0.27034523871854
H            3.52933253523319       -1.77626642171859       -0.08370724024628
H           -1.89315268309424        3.08086361933511       -0.33947656428169
H           -3.15980926737612        1.99780402625625       -1.08138425542388
H           -3.16112499337538        2.33860414739632        0.65076118849579
H           -0.87059219781857       -3.24863835784571        0.64307622924977
H           -1.17808287783697       -2.95131872490616       -1.11487570602086
H           -2.43333180588015       -2.61523134469786        0.12694996209273
H            1.25237167698966       -2.86770125928829       -0.14092334705981
25
 energy: 18.565655216990 xtb: 6.6.1 (8d0f1dd)
C            3.44303192593050        1.09453754022076        0.15647793081918
N            2.37860019291139        0.13276240924670        0.03577206338710
C            2.60576016263838       -1.23154848000238       -0.04507569937650
N            1.39929600448181       -1.86590419061120       -0.13807508159769
C            0.40816966621475       -0.95691549777607       -0.05190857431294
C            0.94247571899706        0.33125307461929        0.04680855885092
C            0.04179974281470        1.43959387204332        0.10844553514005
O            0.26452957351316        2.63991061137296        0.16356680288756
N           -1.55655806742913        1.12854352082643       -0.02456179573343
C           -2.57236188134282        2.19069905477907       -0.25437110465272
C           -1.96319705275972       -0.13016740566840        0.19012573644697
O           -3.09807901222691       -0.51143117075487        0.34832424074444
N           -0.92910957893997       -1.18810487500190        0.01382106853254
C           -1.33911124106941       -2.57652784610378       -0.10410374475783
H            3.65021118694627        1.33193840687782        1.21945107338449
H            4.35884615439720        0.73026587538825       -0.34675262167041
H            3.16624755227217        2.03328034861221       -0.31852649912088
H            3.53780036919904       -1.74660712584703       -0.14070422749174
H           -1.96799243372590        3.09177986820764       -0.40723661089830
H           -3.25125736879991        1.97141884155575       -1.10310982103961
H           -3.22584840420262        2.39513591823085        0.60128542841543
H           -0.80177772157427       -3.25020024678701        0.59090703635384
H           -1.20756479209180       -2.91439444967467       -1.14279231807582
H           -2.39762340172402       -2.63688005778520        0.16968962965817
H            1.29577908575902       -2.86612345509997       -0.18396012988181
25
 energy: 33.125729004866 xtb: 6.6.1 (8d0f1dd)
C            3.47171181134966        1.06675651810378        0.16278922283679
N            2.39783051951809        0.11442775480203        0.05672054444375
C            2.62229013333963       -1.23957891729963       -0.06218206944968
N            1.41948321561112       -1.87816523983527       -0.14616447309923
C            0.41933665879498       -0.96989063409232       -0.05310389011171
C            0.96126336006904        0.31996330160425        0.05535691636218
C            0.08940969327680        1.44080637556177        0.12164197259000
O            0.25903647906354        2.64025765073064        0.23070541365203
N           -1.64048541845853        1.15435990288958       -0.04162512767919
C           -2.65280153899072        2.22081946138613       -0.27319714310678
C           -2.01622641823818       -0.09357810516112        0.18975912726779
O           -3.10549352104276       -0.53606551655260        0.43481920394511
N           -0.91880762383263       -1.17561273908666       -0.02606831984438
C           -1.31948598765484       -2.56472715754937       -0.12114204665853
H            3.63364703592256        1.39127254676430        1.20388167348336
H            4.39209770271962        0.64587948343466       -0.27594007299142
H            3.24805258976975        1.98454212642243       -0.37115649158736
H            3.55153149882730       -1.73356917433380       -0.20323340501709
H           -2.04175671947009        3.10831073372956       -0.46383120605610
H           -3.35253093509002        1.97408717117429       -1.09607113865491
H           -3.30409682839200        2.46302965257473        0.56803893605631
H           -0.73685863054793       -3.24505951142493        0.52941362581015
H           -1.25339518169127       -2.87180779940454       -1.17049877531419
H           -2.35944538798120       -2.65836646183116        0.21060539439161
H            1.31384711552520       -2.87043567975875       -0.23907974942150
25
 energy: 51.130643329263 xtb: 6.6.1 (8d0f1dd)
C            3.50180300888362        1.03352617546197        0.17047071109910
N            2.42331464778090        0.08869067658904        0.08556514458729
C            2.64677399407947       -1.26187167618834       -0.01803325187239
N            1.44337090033091       -1.90057269421078       -0.11445476421604
C            0.43671572909783       -0.99320695833634       -0.03951852848145
C            0.99640732935034        0.30085430765206        0.07263007236382
C            0.18054966685518        1.43575928709225        0.11001869795570
O            0.26494925233083        2.62855973283060        0.28208073172174
N           -1.74639351524766        1.18685900011146       -0.06240822044655
C           -2.72058809865632        2.27384953518959       -0.25340004772182
C           -2.10099669727995       -0.02574603208545        0.21370262520157
O           -3.11474751272459       -0.56165545911888        0.53010656665033
N           -0.88642608833847       -1.17978662445402       -0.00895846306923
C           -1.31956584761867       -2.55844216596903       -0.12288208639539
H            3.61453842160377        1.43943212877231        1.18386553951434
H            4.42253164491149        0.55870887882321       -0.20023424410959
H            3.33172638892280        1.92453619547772       -0.42148948087900
H            3.56597105857597       -1.73603653601641       -0.25735365515444
H           -2.10794102196387        3.13753079258901       -0.50810383007360
H           -3.42624776284186        2.02742593855274       -1.06182419855158
H           -3.36161101438878        2.50473990974762        0.59848155823384
H           -0.68621543296256       -3.24271566387969        0.46835292350810
H           -1.30551256376600       -2.82663851780766       -1.18657377422021
H           -2.33306199339737       -2.67904220279837        0.25575277712909
H            1.35403310102402       -2.88645755931994       -0.25682121892547
25
 energy: 71.181310208106 xtb: 6.6.1 (8d0f1dd)
C            3.53665747926982        0.99876601700563        0.17644365185646
N            2.46676636377776        0.04972715432158        0.11421965846248
C            2.69333414065768       -1.28259896948045       -0.02648080725560
N            1.50044216998701       -1.93550296936372       -0.10993705705655
C            0.47305820931639       -1.03322560969612       -0.03165977342938
C            1.05356153327124        0.26544432958955        0.09579837202491
C            0.32017910883046        1.41651384337674        0.07693881873799
O            0.32036418218526        2.59316879745526        0.29599415167725
N           -1.90724782834431        1.24347443698219       -0.07738103397185
C           -2.81740233575989        2.34966829082244       -0.26385235986334
C           -2.26024815255940        0.09800925903635        0.24494997644465
O           -3.11282615970816       -0.60454166414051        0.63598791972499
N           -0.81316848665458       -1.21471161424125       -0.01845105692963
C           -1.29348217425421       -2.57251332803681       -0.14548310240580
H            3.58545981052102        1.48382881768753        1.15422874108100
H            4.45506072099995        0.47521661989063       -0.11980611227325
H            3.41761145898470        1.85829084741922       -0.47176642988617
H            3.62914096177459       -1.71511675404872       -0.27137953805347
H           -2.17198805338284        3.17024183931187       -0.55853491121503
H           -3.49725585609388        2.13192078297623       -1.08436770720166
H           -3.42244235563302        2.59744572528977        0.60694750346966
H           -0.62623363427578       -3.25789625706485        0.39437938656244
H           -1.35088517494143       -2.78954035731090       -1.21787267011656
H           -2.28324315600895       -2.69905236777281        0.29582217896953
H            1.41921910765911       -2.91657580112320       -0.27166928715770
25
 energy: 77.033242677930 xtb: 6.6.1 (8d0f1dd)
C            3.57472919128890        0.96772018520061        0.18139825155115
N            2.51104723457067        0.01276774023477        0.13053854083957
C            2.73249639097114       -1.30767578875172       -0.02989151089857
N            1.55286952749056       -1.97303764665193       -0.10008595764573
C            0.51165018567418       -1.07008518280288       -0.02396161910830
C            1.10377610672080        0.23170638371597        0.10830899826018
C            0.39997426134311        1.38093688175110        0.08146213112347
O            0.33207547612189        2.55050585190929        0.31835303179959
N           -2.05646108387311        1.29910356850890       -0.07670960517753
C           -2.92228591351932        2.41317204373545       -0.28351542610179
C           -2.40876217000125        0.19628429034523        0.27734793294110
O           -3.08718221418324       -0.62939548677983        0.73240896786324
N           -0.75315538729021       -1.24854919082176       -0.02164298106376
C           -1.26870012962899       -2.58668484876488       -0.14920789216174
H            3.55753580174942        1.52634089079384        1.11829565937869
H            4.49166098042758        0.40450854590853       -0.03960761208173
H            3.50904182212162        1.79870413562302       -0.51686368515873
H            3.67211180256853       -1.74405052943380       -0.21821940680309
H           -2.26689976482111        3.21793257150419       -0.58064331816440
H           -3.56564192068914        2.21128137910656       -1.12722601736026
H           -3.53744740831274        2.62737971021235        0.58825726476677
H           -0.57145733033336       -3.27845537061046        0.33001188884764
H           -1.40782296025409       -2.78566344708629       -1.21535367573809
H           -2.23630236409898       -2.71549673816660        0.34453882047430
H            1.46297609287500       -2.95436842584109       -0.24949667348910
25
 energy: 77.762897265102 xtb: 6.6.1 (8d0f1dd)
C            3.61806741432138        0.93964087805003        0.18363888670628
N            2.55063632764543       -0.01466926612910        0.13238869931306
C            2.76771732159737       -1.33281262216056       -0.02856533148803
N            1.59444933621239       -2.00162909074057       -0.09431925060874
C            0.54826521287756       -1.09944617937604       -0.01942766594028
C            1.14639354610239        0.20391761600472        0.11239045412226
C            0.44647183230457        1.34864083007687        0.09811413573373
O            0.32925258321306        2.50869381591953        0.37450521484951
N           -2.18452389970020        1.34703188267746       -0.06698990023610
C           -3.00483426508976        2.47954775349560       -0.29258853689943
C           -2.52122582595880        0.26061539560702        0.31106684358265
O           -3.05962808910336       -0.62761263091861        0.82579989418423
N           -0.70927885432811       -1.27580072681297       -0.02203405385142
C           -1.24295690665154       -2.60179407059397       -0.14249325497808
H            3.53399009861774        1.56574039716934        1.07318146256188
H            4.53481869972283        0.33925619032054        0.04422051262341
H            3.60805104236872        1.74473240277852       -0.55998038783868
H            3.70762532027136       -1.77769006927191       -0.15440041844658
H           -2.29998090324640        3.26329153468240       -0.55187244491809
H           -3.64244941046889        2.28962935101897       -1.14537078393810
H           -3.63309840563080        2.69396557299554        0.57207354929968
H           -0.51403531060283       -3.29903423259214        0.27139673901494
H           -1.46904500575283       -2.79253517793824       -1.19445852278752
H           -2.19055172275582       -2.72550916850748        0.40148882171512
H            1.48378364309616       -2.98429432552154       -0.20322404269563
25
 energy: 76.864181775758 xtb: 6.6.1 (8d0f1dd)
C            3.62885778985843        0.92543686154691        0.19884639922077
N            2.58108572773282       -0.04191929955689        0.13622846141222
C            2.80684920997417       -1.35678360161752       -0.02981185970719
N            1.63783039775114       -2.03124551703737       -0.09246078642128
C            0.58425430486973       -1.13240272961198       -0.01760535901912
C            1.18170727867859        0.17325804028769        0.12069339813549
C            0.48840242648465        1.31981997954281        0.12066351127339
O            0.36338529306388        2.47477322476825        0.42523239149996
N           -2.29353418841036        1.40175858066419       -0.06052970375136
C           -3.07881781822981        2.54681492356361       -0.29538096119293
C           -2.61245884374028        0.32253650365504        0.32523526399321
O           -3.04691583804855       -0.61099609265650        0.84440311671935
N           -0.66941279027055       -1.30428198158798       -0.02608013981040
C           -1.23756983833942       -2.61189161545272       -0.14540254507596
H            3.50535265672379        1.61219560866417        1.02670893534457
H            4.54107082154748        0.31570805461434        0.15045120461991
H            3.67512548067506        1.67372978859011       -0.59982480427339
H            3.74677426439134       -1.80528530813254       -0.13591602518363
H           -2.31457650190495        3.30001915499500       -0.48733496389313
H           -3.70909263674650        2.37052937622979       -1.16102156024043
H           -3.72165580001306        2.76074359153003        0.55987260304191
H           -0.51390070271424       -3.33180237479570        0.19970399935529
H           -1.53959413799529       -2.79433070976493       -1.18144895406742
H           -2.15946421167080       -2.71799702451708        0.45677029296009
H            1.53387412352859       -3.01113814036292       -0.22833895840334
25
 energy: 75.165137759595 xtb: 6.6.1 (8d0f1dd)
C            3.63256785039770        0.92283067729320        0.19254047169815
N            2.61081835207643       -0.06754692325272        0.13541892153686
C            2.84979366870991       -1.38207876426747       -0.03063642236066
N            1.68125813434364       -2.06162892095287       -0.08836080001560
C            0.62004294788724       -1.16882070723483       -0.01559549633335
C            1.21475008005868        0.13883745629116        0.12268742054816
C            0.53412824657084        1.28601904223273        0.11800748704401
O            0.39336160390406        2.44583359755347        0.39560701998911
N           -2.39941045487681        1.46583033825000       -0.04935297109146
C           -3.16212804962780        2.61419552302026       -0.30066178180141
C           -2.69660370272490        0.38444787331546        0.32704022618795
O           -3.03496955763126       -0.60319777062561        0.80295349238843
N           -0.63136672133876       -1.33962914921815       -0.03212465980878
C           -1.21664252171509       -2.63662082946206       -0.15127699113470
H            3.48425967183183        1.65904123321937        0.97259122141745
H            4.52712966529029        0.30604625490400        0.25543463736865
H            3.73142031693576        1.59740476625323       -0.64994178659317
H            3.79139630710347       -1.82967287229994       -0.15386304616881
H           -2.37885366130085        3.35221504571776       -0.45903038907454
H           -3.77735673895101        2.44869369641763       -1.17993344471564
H           -3.81460337560062        2.83404964671643        0.54425910841692
H           -0.48173119546528       -3.36692443417612        0.12486892707371
H           -1.57659401727743       -2.81189975238633       -1.17374879148516
H           -2.11128399947478       -2.73605211116765        0.49767702259837
H            1.58379747173045       -3.04227652796448       -0.22573369458727
25
 energy: 71.043150468015 xtb: 6.6.1 (8d0f1dd)
C            3.64808583997020        0.91867991820829        0.17726809696568
N            2.64901399332773       -0.09431488503090        0.13188391432375
C            2.89575371723535       -1.41021345450299       -0.03243047195886
N            1.72540377981684       -2.09158367520594       -0.08588033313787
C            0.65951532144387       -1.20187401512753       -0.01906348731382
C            1.25616957377133        0.10558822137826        0.12233136509377
C            0.58526969576934        1.25221090439606        0.12149124293885
O            0.40811595835263        2.40107161601219        0.40624529615123
N           -2.51737079253320        1.50786044906854       -0.02797486133371
C           -3.24462794413036        2.66991189475078       -0.30454155931824
C           -2.79064188198425        0.41966491623015        0.34164648557026
O           -3.06408338516982       -0.62755436405114        0.73215689556555
N           -0.59125698192827       -1.36870070723417       -0.03916449489374
C           -1.18595642881447       -2.65860611660928       -0.15376855504807
H            3.50624042088489        1.63474675346263        0.98366150642726
H            4.54045078079224        0.32992858288546        0.33374237998825
H            3.75891742464041        1.54498970455864       -0.70419527002112
H            3.84153537830190       -1.85613195170051       -0.15343978523482
H           -2.45164876150515        3.39463092309727       -0.45826498235274
H           -3.84995918684127        2.51854242756175       -1.19469179204057
H           -3.90113329319577        2.91047904708933        0.53045321145950
H           -0.46103076103925       -3.38701692947994        0.13279999509645
H           -1.52666304628152       -2.83404609228420       -1.18317169688394
H           -2.07324312537324       -2.75043493334790        0.50113694705417
H            1.63308293611869       -3.07356827907136       -0.22188565205463
25
 energy: 67.931145986045 xtb: 6.6.1 (8d0f1dd)
C            3.68026836418898        0.89711339880275        0.17723045498212
N            2.69060717153167       -0.12343277983051        0.13182265351595
C            2.94225720182207       -1.43990137263869       -0.03413481947376
N            1.77014542668540       -2.12145797402729       -0.08510249568617
C            0.70073841524432       -1.23574102013269       -0.02265085984502
C            1.29977189410019        0.07448725176571        0.12269679688777
C            0.63669274671214        1.22043411260586        0.13155480185889
O            0.40321834123063        2.35617338789190        0.40971648877639
N           -2.63770420857067        1.54516368443384       -0.02166592524341
C           -3.32321719503247        2.72810934278135       -0.31100088979545
C           -2.88500081492499        0.46089713340293        0.37486204770021
O           -3.08193253342567       -0.60913882883614        0.75533597931787
N           -0.54808949951657       -1.40746578901070       -0.04459784550675
C           -1.16248711089835       -2.68781794635565       -0.14644205125283
H            3.53381923291272        1.60066245696623        0.99692782255728
H            4.57844011487497        0.33652501868657        0.39636389051010
H            3.79560681479590        1.47865976499838       -0.74356456331168
H            3.89262636805155       -1.88301914643076       -0.15205013162494
H           -2.52257224788442        3.44438410715565       -0.45701427735417
H           -3.91934241871076        2.59509645084631       -1.21142136530540
H           -3.98336470922172        2.98830977042460        0.51508678476208
H           -0.47012702036325       -3.42540671078371        0.20115980380249
H           -1.46084524723568       -2.86186079186553       -1.18746271324329
H           -2.07389864793941       -2.74221488742959        0.48444266681263
H            1.68095259626203       -3.10458985012411       -0.21871560323471
25
 energy: 65.164279521210 xtb: 6.6.1 (8d0f1dd)
C            3.72055456804118        0.87175798698365        0.15708640667372
N            2.73581152810785       -0.15245205899437        0.13179635250607
C            2.99277355087363       -1.46976193693218       -0.03360081372677
N            1.82000186652217       -2.15222474494216       -0.08275328856418
C            0.74766095798880       -1.27145893175300       -0.02730992535618
C            1.34552307095836        0.04711660488317        0.11679241964678
C            0.69438363975283        1.19417803890573        0.14431412081235
O            0.37311049615616        2.30801570755096        0.40497996642911
N           -2.77200825405414        1.58062473871878       -0.01712822358749
C           -3.39906587141934        2.79179325323687       -0.31903396133132
C           -3.00435351832625        0.50895050779552        0.42321002515095
O           -3.14036137277852       -0.57362646163648        0.80740866832017
N           -0.49929997020936       -1.45319118725325       -0.05473006018639
C           -1.13604178105277       -2.72199049925452       -0.14843997053348
H            3.58373839475157        1.55126823588989        1.00363922423262
H            4.64273379579908        0.33127705825684        0.31204192930949
H            3.80732001230852        1.41315465466048       -0.79706160244495
H            3.94813767702812       -1.90758366532666       -0.14846677721661
H           -2.58560233082109        3.49484665047662       -0.45693820473926
H           -3.98634020841184        2.67580099773639       -1.22896469841715
H           -4.05889962552488        3.07322970695940        0.50108659754482
H           -0.47603678167795       -3.48504254574196        0.23315765001710
H           -1.39813127501325       -2.89608262492364       -1.19665725785375
H           -2.08151639599068       -2.72364411165512        0.43605193248254
H            1.73089205014870       -3.13636278649680       -0.21535709530838
25
 energy: 63.033292964113 xtb: 6.6.1 (8d0f1dd)
C            3.75877047026092        0.85589586928612        0.15566581709887
N            2.78685115273804       -0.18005238619553        0.12536994295306
C            3.05000843367611       -1.49938948929175       -0.03472458790722
N            1.87570379588016       -2.18302650084968       -0.08151402737639
C            0.79759676649331       -1.30790610867581       -0.03273710240959
C            1.39457195658251        0.01760178413265        0.10897137794839
C            0.75424093311211        1.16575043939005        0.17165843627818
O            0.33926457695021        2.25510101426594        0.38335666606668
N           -2.91756409194500        1.62435514169366       -0.01975865102794
C           -3.48334858936506        2.86553438411325       -0.32794172128512
C           -3.11472691220142        0.56363287183245        0.46433901516951
O           -3.20964096384740       -0.52754732737536        0.84431330803112
N           -0.44843520896898       -1.49990540165296       -0.06487357146788
C           -1.09829390368956       -2.76214382252341       -0.15590703205089
H            3.62900337015793        1.49196944092946        1.03735968183247
H            4.71396910271973        0.34859630332753        0.23296949763155
H            3.77122411443285        1.45381903670874       -0.76555800170539
H            4.01102456049974       -1.92976956289274       -0.13893218742466
H           -2.64951791987371        3.55033605062079       -0.45559596827905
H           -4.05777170387729        2.77406729530503       -1.24979822567449
H           -4.13960844980724        3.16891917466304        0.48523161958738
H           -0.47495201789830       -3.55341170470160        0.24545892957161
H           -1.33951573953196       -2.93591402953370       -1.20659221517758
H           -2.05580523885330       -2.72096770299196        0.39729385434405
H            1.78271069886842       -3.16783429771767       -0.21441727506371
25
 energy: 61.390596163793 xtb: 6.6.1 (8d0f1dd)
C            3.78948638214235        0.84866663339839        0.15202389717474
N            2.83181436720620       -0.20271644576184        0.11169412257829
C            3.09862320154634       -1.52462648490299       -0.03661615253162
N            1.92026087990206       -2.20792414694470       -0.08332088380559
C            0.83525228936282       -1.33578512856882       -0.03762743715412
C            1.43764378050127       -0.00685959451749        0.09590703595299
C            0.80932999455757        1.14572878790195        0.20162896137418
O            0.30319609901110        2.20359808627278        0.36060783528475
N           -3.02796965757616        1.67706147523431       -0.03091402288118
C           -3.56275616738462        2.93657103759546       -0.33822986582802
C           -3.17618369769537        0.62508071042483        0.48799071782225
O           -3.20355474207350       -0.46211458183593        0.88300995607428
N           -0.41074925477994       -1.53810412422520       -0.07299935477390
C           -1.06214296611886       -2.80241247563784       -0.16502473993271
H            3.67533198743708        1.43153373245990        1.06988500947711
H            4.77036935177972        0.38484750851395        0.15169670309742
H            3.71663924704583        1.51396312259678       -0.71671952894657
H            4.06913445773626       -1.95047418535137       -0.12442315446852
H           -2.71894790155477        3.61569406885889       -0.45721561137362
H           -4.13031181641782        2.87127951373341       -1.26898726264310
H           -4.21758958934916        3.26067635102870        0.46815309936039
H           -0.47865186545412       -3.63009316088051        0.24680006884097
H           -1.29230885487828       -2.99275853729243       -1.21590163912539
H           -2.01952306735607       -2.72331116466221        0.36884863633282
H            1.83891190544879       -3.19823488468950       -0.21150179730987
25
 energy: 60.778021223037 xtb: 6.6.1 (8d0f1dd)
C            3.81379632963600        0.84239491560575        0.15288068666003
N            2.84566410904871       -0.20407055016938        0.08277331359986
C            3.09725777751993       -1.52816862928638       -0.03915918471024
N            1.91478379048240       -2.20281686922170       -0.09688636813239
C            0.83005449393118       -1.32644402340859       -0.03553562464976
C            1.45345084648263       -0.00218039859755        0.09092886608949
C            0.84045126425188        1.15555854327807        0.23441349189678
O            0.24554365803266        2.17205198509167        0.34093042018631
N           -3.03870324676772        1.68764645846070        0.00161956642274
C           -3.57414321510702        2.94916374002456       -0.32824728756372
C           -3.17497316917491        0.60139204505166        0.45225499285323
O           -3.12626651237765       -0.48499935932618        0.85562689123241
N           -0.41798082978058       -1.52862265982817       -0.07219216442909
C           -1.05318722228343       -2.80542994817472       -0.16922494463297
H            3.71211891146232        1.38774711325920        1.09560624135137
H            4.81524764715229        0.41867143996821        0.09255409385258
H            3.67418964573930        1.54856707912263       -0.67028144229285
H            4.06946636430458       -1.95885868070188       -0.09544719276704
H           -2.73972378174477        3.64020060603188       -0.45058886964599
H           -4.12883322475363        2.89078592508754       -1.26823627549707
H           -4.23710530425862        3.32013739269229        0.45754402341520
H           -0.48374539639708       -3.64243288969963        0.25643743548175
H           -1.27133655792435       -3.02592033419824       -1.21908471909850
H           -2.00528454065456       -2.71526225807560        0.35463679586411
H            1.85147246815315       -3.20008185424169       -0.19628883329143
