25
 energy: -42.084331500904 gnorm: 0.005351313970 xtb: 6.6.1 (8d0f1dd)
C            2.55581855604852        1.29011724143863        0.00178691377543
N            1.85249427363789        0.03749022628668        0.02974159096705
C            2.36656385209859       -1.17528802119685        0.17249512670277
N            1.38202251038985       -2.09558874436186        0.13641908848197
C            0.19888448519281       -1.43648771936734       -0.04227122555228
C            0.50050306401978       -0.09738687568966       -0.10001594413467
C           -0.57199663815124        0.88315425462420       -0.34372179671097
O           -0.41737995886220        1.76212743252201       -1.38387381727124
N           -0.36936023420881        2.23461608238493       -0.01326966539409
C           -1.47747817701883        3.07665201421319        0.36899624990005
C           -2.09972419272081       -0.98818886202515       -0.13267961059677
O           -1.84207467127041        0.27618693584779       -0.19838637855488
N           -1.08921078754011       -1.88939917365784       -0.10569635377159
C           -1.36745440416970       -3.31100048730862       -0.07404176089821
H            2.26090286370187        1.89879573376944        0.85745173630840
H            3.62812439289311        1.11352084955828        0.02245548524381
H            2.28396639920445        1.83845528649874       -0.90103909129845
H            3.40809171519393       -1.39831370745864        0.29369070181339
H           -1.17175971501736        4.10173705508336        0.16753865501429
H           -2.39446302566522        2.84670553747812       -0.17366021206613
H           -1.63273533575341        2.94617794229906        1.43808153336081
H           -1.03204910361760       -3.74863735589970        0.86755391678547
H           -0.87469360632619       -3.80932965234130       -0.91030513197413
H           -2.44258302453818       -3.44247816103936       -0.16377772613862
H            1.50602227657670       -3.09539929006791        0.21769933390623
