72
 energy: -99.369131951328 gnorm: 0.003751754053 xtb: 6.6.1 (8d0f1dd)
N           -2.67627876783749        2.97134654214103        2.59570898575315
C           -2.42154265837434        2.06337557088009        1.77801534139655
C           -3.25191152651600        1.77466811521705        0.55324458515602
C           -3.92317779246462        0.41739716983274        0.70209446213334
C           -4.62360107597949       -0.13015443273200       -0.37336211061833
C           -5.25530622557262       -1.35958789131291       -0.27738297443089
O           -5.96950013383597       -1.94705595918791       -1.25727067982671
C           -6.20239769827897       -1.25025453994159       -2.45842990596284
C           -5.16791309750762       -2.09911492699716        0.93512271248345
O           -5.78249043745540       -3.29510334461553        0.92959698237199
C           -5.75965393408678       -4.08667336769139        2.09539075339385
C           -4.48075782779461       -1.54223897698839        2.00378370045338
C           -3.87678535964338       -0.29906647544246        1.89029054120783
C           -2.21640523708917        1.69813242728621       -0.61065070052992
C           -1.23467016561011        0.61744757935808       -0.42363037525323
C            0.20502644412248        0.79161637091792       -0.71119619013205
N            0.88780616612153       -0.47447066915006       -0.81407622242205
C            2.29169215432259       -0.49158266416195       -0.49615081994021
C            3.23158784831460        0.00211701573350       -1.62208146675997
C            4.63833274033142        0.15535876848245       -1.12582895125838
C            5.26124686637485        1.39591506154456       -1.11454573662674
C            6.56519097411289        1.53746213907835       -0.66713024677505
C            7.27463042600233        0.44010560631418       -0.19787232903566
O            8.53812168768964        0.45745384750452        0.25981496200680
C            9.26029539704225        1.66756948423850        0.25036102371545
C            6.63917475162054       -0.83524296806718       -0.18489160938814
O            7.38858646809139       -1.84104472522103        0.30304351778483
C            6.83860208042805       -3.13411764036820        0.39224426169625
C            5.34199507343234       -0.95379373988562       -0.65885796673962
C            0.49620505272763       -1.27038439162546       -1.95089784354835
C           -4.33753775236162        2.84770094242548        0.26555479897560
C           -5.40449815011310        2.85550316424805        1.35871806328854
C           -3.77234839486478        4.25481401008512        0.09031960913211
H           -4.68880935595864        0.41732994233653       -1.29937893744057
H           -6.71641249469260       -0.30128425255356       -2.27735808309450
H           -6.84341486208479       -1.89882134986438       -3.05243265555404
H           -5.27180948495536       -1.06583522842989       -3.00473571220909
H           -6.24330621545105       -3.57801187391215        2.93434097821477
H           -6.31880920387238       -4.98695281950097        1.84809679652962
H           -4.73699278124434       -4.35945817520215        2.37337831824121
H           -4.41512168989686       -2.06905886104045        2.94165178599614
H           -3.37650552209909        0.11051921402823        2.75338298206925
H           -2.77890695969200        1.54210140566171       -1.53990433164013
H           -1.69908126577607        2.65496948587004       -0.71001995910227
H           -1.56239454118321       -0.32392596427790       -0.01212044571355
H            0.32558669483287        1.41551300064589       -1.61944392477987
H           -1.54590289286892        1.39523708807266        1.84220790597651
H            0.67467798296078        1.35991495794789        0.10864123692375
H            2.55729524349712       -1.52063628378801       -0.23946221032300
H            2.44918588761163        0.12596447939025        0.39156022745619
H            2.87145970447850        0.96164605431593       -1.99659971726660
H            3.20899908793533       -0.71785383344949       -2.44287756218049
H            4.73362246597393        2.26700240018532       -1.47206906298747
H            7.02357756157023        2.51267353234882       -0.68708739688138
H            8.78902557129311        2.42069242840559        0.88893119098189
H            9.36464928462396        2.06218350397835       -0.76468774368907
H           10.24428436526986        1.42347086617292        0.64611711527183
H            7.61552371051859       -3.75181758693988        0.83862457723329
H            5.95165227436547       -3.14770400594694        1.03352138865398
H            6.58362305317858       -3.53121844909113       -0.59499565125335
H            4.86612031467439       -1.92109040644345       -0.67777281848339
H            0.78747677252782       -0.81643033373679       -2.90777355755447
H           -0.58633825129484       -1.38807358556636       -1.94771565600048
H            0.95587719719481       -2.25364867688041       -1.87603414792271
H           -4.82226470865104        2.56222196643335       -0.67517398136540
H           -4.96520676167838        3.16325198011472        2.30238823528423
H           -5.84872005323744        1.87068941344798        1.48170774080954
H           -6.19205713578206        3.55745737225218        1.09733970886872
H           -3.24844375425037        4.56622378248538        0.98870336686380
H           -3.09876826937208        4.32167643223198       -0.76012740111555
H           -4.59140519263590        4.94810309510665       -0.08224285898096
H           -2.04716807422003        3.09902170584352        3.38163693107137
