25
 energy: 117.721430852848 xtb: 6.6.1 (8d0f1dd)
C            3.29155453768021        1.14747828210230        0.12577078013139
N            2.32651445417483        0.07668833905485        0.06975769013356
C            2.67540786184852       -1.20713857292502        0.08025142008669
N            1.57564817658628       -1.98774693446174        0.06429268140789
C            0.41978679184418       -1.15571952962169        0.05276474117718
C            0.95340037849217        0.16155393840089        0.07268450402670
C            0.09753908870074        1.35938312809638        0.01595939893396
O            0.62182660094668        2.47632030729534       -0.05972543860307
N           -1.30436912684608        1.09150426746036        0.07651820202778
C           -2.10790988981728        2.28803686691365        0.18546341775004
C           -3.13096517124296        0.51954741922088       -1.08957921278483
O           -3.78490965924554       -0.39755030736995       -0.91969408251040
N           -0.81592126477765       -1.43672094662225        0.02064827536050
C           -1.30101110256701       -2.77039101155240        0.03102656953712
H            3.78203058294821        1.15890985316137        1.10210384760833
H            4.05578369313839        1.00029278466849       -0.64085973226086
H            2.78714255954472        2.09702722350350       -0.03408978975458
H            3.68317316786345       -1.57908890741033        0.07290587438464
H           -1.83625902812702        3.07455304635496       -0.53320112905579
H           -3.17089783155000        2.05741850461275        0.05151334123937
H           -2.01448834724896        2.63226334993872        1.20646358105280
H           -0.88488905169904       -3.29822099238915        0.88978496326174
H           -1.02546101847844       -3.30418213346953       -0.88218515315151
H           -2.38696376925676       -2.76493467477077        0.11386658390883
H            1.57297882438851       -2.99157639641334        0.05318114618112
