25
 energy: 83.290537043185 xtb: 6.6.1 (8d0f1dd)
C            3.28042203140381        1.14635530201943        0.12271698572683
N            2.30973718303184        0.09342457573834        0.06757930451479
C            2.63513551837802       -1.20878952020417        0.10086880244410
N            1.50625821394947       -1.97102861743567        0.04097354187741
C            0.37210705513842       -1.14982861873684        0.02241659513317
C            0.91505569586257        0.16917874983735        0.04235562872900
C            0.18490761092749        1.31142717862783        0.01365676915139
O            0.49813248825818        2.47870147617201       -0.06247284950930
N           -1.66806493094987        0.99337088063116       -0.13221437573409
C           -2.21343363200634        2.31218784593842        0.15731909612750
C           -2.62435455797918        0.34310730844459       -0.66238483038096
O           -3.44624710371783       -0.37841637133688       -1.06763105455838
N           -0.88660996485580       -1.38163829972504       -0.01608708870680
C           -1.34208978809653       -2.73403527241976        0.01957442185069
H            3.79612308321204        1.17057273968075        1.08968331558608
H            4.03749766647049        0.98413829481020       -0.64717889785099
H            2.79590142171023        2.10799503361316       -0.04774106442528
H            3.63690191853709       -1.57730693960332        0.08030393544740
H           -1.74464092783246        3.09867326967309       -0.42521708998566
H           -3.23203152084072        2.14620026580493       -0.14639236442571
H           -2.23838262544972        2.50893143498043        1.22424170116730
H           -0.91287415287016       -3.22407270358155        0.89511382752081
H           -1.03618562870137       -3.27312869008944       -0.88037332978129
H           -2.43414485312022       -2.76854269391107        0.08839177489950
H            1.52214768235284       -2.97031700585614        0.05647876172003
