  25
        -42.10854209
 C          3.1617556245        1.0700874541       -0.0338154879
 N          2.2922774237        0.0660445691       -0.0155017526
 C          2.5545725874       -1.2616746029       -0.0133539018
 N          1.3888051276       -1.9637585423       -0.0052363652
 C          0.3583358889       -1.0769079765        0.0019726766
 C          0.9040724171        0.1957199886       -0.0015286457
 C          0.0816977008        1.3841219055        0.0033827244
 O          0.4847573291        2.5228604634        0.0169230504
 N         -1.2759162803        1.0581312906       -0.0059398509
 C         -2.2301867537        2.1578636197       -0.0208270487
 C         -1.8467814043       -0.2008664262       -0.0127055914
 O         -3.0336419566       -0.3688734459       -0.0288764058
 N         -0.9655318960       -1.3058611037        0.0029236740
 C         -1.5225862278       -2.6440763173       -0.0031381145
 H          3.6417313230        3.4705197095        1.6739884419
 H          4.2148353326        0.8607841748       -0.0419555876
 H          2.7811642073        2.0760343756       -0.0469278910
 H          3.5310485333       -1.6979436656       -0.0286438776
 H         -1.6736078630        3.0907722200        0.0251423659
 H         -2.8264334844        2.1180497216       -0.9328248362
 H         -2.9042944533        2.0737773105        0.8313708176
 H         -1.2318791524       -3.1845823774        0.8982336675
 H         -1.1976126983       -3.1895073782       -0.8898841920
 H         -2.6075738181       -2.5470317972       -0.0239829308
 H          1.3183010700       -2.9707612824        0.0087706344
