25
 energy: 0.000000000000 xtb: 6.6.1 (8d0f1dd)
C            3.23720163006194        1.16630919979326        0.08434469647475
N            2.29877817382611        0.07527477071623        0.03981603040599
C            2.58028210190900       -1.21425402444508        0.03006176031096
N            1.43813958087363       -1.93419271955128        0.00098261760884
C            0.39035688448383       -1.05887472636071       -0.00790371836672
C            0.93510056364412        0.21347819449412        0.01709077491437
C            0.09450143893243        1.40504303904423       -0.00410947031874
O            0.49712751527797        2.54126714362870       -0.00342325688240
N           -1.25076640035757        1.06271879480407       -0.03085478223738
C           -2.21907211982101        2.15522099834493       -0.05001256985998
C           -1.81739487048744       -0.20012725993278       -0.04692818574614
O           -2.99983886758376       -0.37846417018721       -0.07008878229737
N           -0.92618586207120       -1.30210215599479       -0.03682761578324
C           -1.46982264913417       -2.64643102187190       -0.06029820460571
H            3.71247264356769        1.21471455160235        1.06488849150277
H            4.00791497605742        1.03430808813993       -0.67357694370751
H            2.69910007168542        2.09770118228144       -0.09130154882931
H            3.56654120610678       -1.63682992603973        0.04233140067262
H           -1.67107961066214        3.09322851271934       -0.02552706933167
H           -2.82428953597071        2.09428624779827       -0.95318082946668
H           -2.87644029173232        2.07745725625962        0.81450067533302
H           -1.17061996399332       -3.19584890659852        0.83242232437030
H           -1.14560257411436       -3.17511610292205       -0.95688275822323
H           -2.55549792440841       -2.55659984320617       -0.07459039797972
H            1.38130855184625       -2.94313852034425       -0.01389874181052
25
 energy: -3.574244764735 xtb: 6.6.1 (8d0f1dd)
C            3.27010872562898        1.17880839479974        0.13094119982043
N            2.31505171815674        0.09530964830979        0.04493816782615
C            2.59464177107604       -1.23690190679279        0.00369722301823
N            1.42019246150049       -1.94296920331132       -0.02608264085447
C            0.39093812281799       -1.05814184148256       -0.02474249120318
C            0.93128494219229        0.22039992592814       -0.00179122307143
C            0.09650700585057        1.39067931866668       -0.02628196146038
O            0.49108419052736        2.55652675317273       -0.03004097957032
N           -1.26677253873085        1.04635195020494       -0.03868272230681
C           -2.22832629369407        2.14259898350167       -0.04941107576006
C           -1.83113405941656       -0.20440971800322       -0.04527130670099
O           -3.02808230212930       -0.38630973009212       -0.05464681891046
N           -0.94147839536363       -1.30425239149798       -0.04096370370426
C           -1.48419353604286       -2.64614500577364       -0.05054375154345
H            3.79161007607733        1.35285519281562        1.12723686776207
H            4.05356118594957        1.00903635576137       -0.60700236924979
H            2.72125864366461        2.08967570386933       -0.11818544674767
H            3.56879310485288       -1.67018911003708       -0.00696951841159
H           -1.66906551974790        3.07525982184572       -0.02514034984675
H           -2.83891236809659        2.09131995306315       -0.95052038997688
H           -2.88258164721304        2.07026497611779        0.81893063203882
H           -1.17766829726179       -3.19334915089116        0.84311262673535
H           -1.16495445260889       -3.18485332002939       -0.94478845381489
H           -2.56999591578048       -2.55514997653353       -0.05758067613005
H            1.35034804572736       -2.94738702143985       -0.04317694179033
25
 energy: 1.980314979387 xtb: 6.6.1 (8d0f1dd)
C            3.30769544905126        1.18988880023362        0.18566615237158
N            2.33470235875275        0.11470677906958        0.05633850011070
C            2.60202777401725       -1.25334488233904       -0.03384411177305
N            1.40123579201273       -1.94180604380544       -0.06674783472588
C            0.39121660679211       -1.05327363926813       -0.04956550407533
C            0.92967437593247        0.23054828422965       -0.01839790063337
C            0.09820174487455        1.37204353882771       -0.05396389958307
O            0.46889065896949        2.55553096562069       -0.07516285000761
N           -1.28597756219465        1.02982431548854       -0.04926776261562
C           -2.24043147915598        2.12930486344101       -0.04975711558325
C           -1.84087102493922       -0.21009521137507       -0.04054943956140
O           -3.04288973715572       -0.39855204221415       -0.02840439694256
N           -0.95495895712798       -1.30393976998416       -0.04787150869966
C           -1.49947365533360       -2.64437522001698       -0.03447273129936
H            3.84948040652552        1.51136917914055        1.20772636016496
H            4.13464436058151        0.96111890308245       -0.49482051694934
H            2.76469383820186        2.08309872692839       -0.15967706849998
H            3.56263920161959       -1.70297496466693       -0.08943734573105
H           -1.67080330774111        3.05643465720863       -0.02563015222569
H           -2.85946401074986        2.08737430932865       -0.94649021707767
H           -2.89022136602751        2.05891160720911        0.82291585205556
H           -1.18697729170727       -3.18690501406105        0.86178746346417
H           -1.19487566762247       -3.20044086789132       -0.92491436727286
H           -2.58594733370587       -2.55082562131711       -0.02926174983245
H            1.32000349406640       -2.94459305069715       -0.08916395893050
25
 energy: 6.436548223119 xtb: 6.6.1 (8d0f1dd)
C            3.33046494571276        1.19484533339424        0.21928781908463
N            2.34435601868947        0.12501612732212        0.06013911559565
C            2.60076897601136       -1.25389005486411       -0.05928223654685
N            1.39554973837432       -1.93564297085970       -0.10007401704115
C            0.39031432122395       -1.04892520451452       -0.06669421095490
C            0.92983204684199        0.23789522645698       -0.02441054082927
C            0.09515792846659        1.36981718359719       -0.07404760577257
O            0.44685169958273        2.55637469871235       -0.11565946290430
N           -1.29809566193727        1.02476516332066       -0.05938436071030
C           -2.25205220468379        2.12202152894348       -0.05261363926495
C           -1.84645467830505       -0.21527487457972       -0.03519397933390
O           -3.04793240938085       -0.40967270586465       -0.00570595436949
N           -0.95893608115269       -1.30388592210649       -0.05300242508094
C           -1.50677172396274       -2.64375452325714       -0.01834690660885
H            3.85805092038465        1.57828395502151        1.26510977664023
H            4.20044979850890        0.92009396480065       -0.39642664816879
H            2.82062931873280        2.08401725193378       -0.18518190559340
H            3.55491540743450       -1.71414694499066       -0.16329870285247
H           -1.68039872929745        3.04736261747236       -0.02952926039555
H           -2.87694271827943        2.08217925022272       -0.94544972714799
H           -2.89701701259928        2.04808446745559        0.82359856164105
H           -1.19022429473392       -3.17823628805920        0.88159375087913
H           -1.21762760845505       -3.21376459779470       -0.90535968322216
H           -2.59368696502478       -2.54548781087018       -0.00187087134264
H            1.31101363578454       -2.93904626872055       -0.13116298955297
25
 energy: 7.580925657334 xtb: 6.6.1 (8d0f1dd)
C            3.33949876869077        1.19364126480160        0.23323080742896
N            2.34659511259854        0.12869867540895        0.06076706492581
C            2.59756927646043       -1.24774602130465       -0.06630050344068
N            1.39688015411585       -1.92953447192617       -0.11715235783032
C            0.38881038052756       -1.04591406150597       -0.07298496425396
C            0.92976831041516        0.24151706125902       -0.01986956195696
C            0.09234044656219        1.37409525676385       -0.08280492050766
O            0.43407669722394        2.55738168728223       -0.13876911561637
N           -1.30284078030088        1.02485782357398       -0.06621692683653
C           -2.25920197104787        2.11899398979697       -0.05589464434715
C           -1.84873561952638       -0.21808389326585       -0.03238460565288
O           -3.04817538179827       -0.41456403926920        0.00714561185267
N           -0.95854305591279       -1.30400384263509       -0.05639678457510
C           -1.50810657818432       -2.64378309011053       -0.00904267269388
H            3.85591374630762        1.59073250747647        1.29197237854285
H            4.22426110709082        0.89428062276088       -0.34106147645635
H            2.86175045611170        2.08162309469302       -0.19487126180797
H            3.54792700688944       -1.71006337326164       -0.21180908045137
H           -1.69040918919510        3.04550181150964       -0.03321842318109
H           -2.88637311830412        2.07887625300978       -0.94696571263442
H           -2.90207121937311        2.04099762091861        0.82153716069986
H           -1.18907193002767       -3.17203473393096        0.89327917714554
H           -1.22768727544184       -3.22071083452294       -0.89345503498180
H           -2.59502359596353       -2.54211049800898        0.01327635885839
H            1.31306292001818       -2.93362020734096       -0.15497661608230
25
 energy: 7.335713946049 xtb: 6.6.1 (8d0f1dd)
C            3.34038647525247        1.19046838052262        0.23489444476533
N            2.34553044957809        0.12948927401306        0.06083668216725
C            2.59527596189648       -1.24089927647266       -0.05919903618254
N            1.39973622936446       -1.92476757648608       -0.12259626033518
C            0.38735755654452       -1.04385801869020       -0.07332358034367
C            0.92909065613282        0.24298657638614       -0.01132947301300
C            0.09161162062448        1.37839593578335       -0.08400316116747
O            0.42923475145412        2.55817385755612       -0.14836306152360
N           -1.30299608637247        1.02555833076547       -0.06881427503795
C           -2.26170981499830        2.11781850703140       -0.05668605299494
C           -1.84908585495688       -0.21908512715521       -0.03147383952526
O           -3.04690091557034       -0.41484690906885        0.01342295844152
N           -0.95720494731777       -1.30409830081182       -0.05922889194839
C           -1.50676870161023       -2.64401405227339       -0.00683644816384
H            3.84581296679229        1.58900531147307        1.30167002435997
H            4.22840446315207        0.87315948519496       -0.31328840448906
H            2.88346638928747        2.07624515661250       -0.20931166357200
H            3.54225227893668       -1.69959259211189       -0.23952536565591
H           -1.69631783045977        3.04623046262223       -0.03341006709805
H           -2.88907018214604        2.07782031301125       -0.94761234894207
H           -2.90446087130863        2.03703683658049        0.82056416780748
H           -1.18608440309907       -3.16932127397852        0.89610801219645
H           -1.22912453067478       -3.22253015295811       -0.88995546330988
H           -2.59351265772315       -2.54123437413007        0.01738049826261
H            1.31729166515779       -2.92911217124384       -0.16288549855048
25
 energy: 6.882886405147 xtb: 6.6.1 (8d0f1dd)
C            3.33845215986160        1.18871738265367        0.23187325842925
N            2.34381778123031        0.12980419517419        0.06110929603061
C            2.59490610728419       -1.23794577048680       -0.04755921171489
N            1.40083886620774       -1.92281706279575       -0.12183533309075
C            0.38662129238331       -1.04289548562360       -0.07194885938417
C            0.92801787683770        0.24345757053541       -0.00570297899908
C            0.09195585866669        1.38007456696698       -0.08247709940983
O            0.42903671089869        2.55907151344415       -0.14979750840180
N           -1.30205339294721        1.02552587393436       -0.06829204842834
C           -2.26151876467841        2.11755218700909       -0.05588202984012
C           -1.84893868639395       -0.21906937668215       -0.03132450402762
O           -3.04633967266124       -0.41387069486891        0.01509976223177
N           -0.95667849022070       -1.30414875234842       -0.06099563404961
C           -1.50538142710546       -2.64431004005988       -0.00847554669039
H            3.83732404005554        1.58796660404578        1.30114473345893
H            4.22771152948282        0.86128256772977       -0.30406692282775
H            2.88985575892900        2.07249106911928       -0.22116494413877
H            3.53923934037032       -1.69186967264815       -0.25228786908273
H           -1.69730181190610        3.04680440554647       -0.03193311917359
H           -2.88822824636525        2.07794339219865       -0.94734969810741
H           -2.90477751427777        2.03603246682508        0.82089598351134
H           -1.18393212318440       -3.16938662941708        0.89418887507277
H           -1.22703305729732       -3.22211985713636       -0.89158951963835
H           -2.59205309615301       -2.54215593782050        0.01568333906339
H            1.31867362891924       -2.92710591312323       -0.16027852464559
25
 energy: 6.373841068807 xtb: 6.6.1 (8d0f1dd)
C            3.33626495345089        1.18758070418950        0.22840511039331
N            2.34194975298917        0.13026068349324        0.06210437585399
C            2.59561527623927       -1.23720466942998       -0.03006471327270
N            1.40113883206921       -1.92195195986365       -0.11971017602757
C            0.38634820364608       -1.04224141414311       -0.07063651190845
C            0.92687475691020        0.24371346104854       -0.00150584084999
C            0.09235962738631        1.38083168470117       -0.08113065762455
O            0.42990423509281        2.55983614168405       -0.14898552412582
N           -1.30120140563691        1.02534022979275       -0.06708621305138
C           -2.26086047724623        2.11761724575941       -0.05473769002761
C           -1.84870806448426       -0.21876025637007       -0.03145752740769
O           -3.04606675756145       -0.41308182563731        0.01547846550959
N           -0.95632030578880       -1.30413802151925       -0.06292557078869
C           -1.50406660450918       -2.64457961044612       -0.01111430855934
H            3.83026669191302        1.58866374694111        1.29742719322347
H            4.22607743273561        0.85267430886510       -0.29847648928615
H            2.89324795748564        2.06892725380023       -0.23177206246289
H            3.53629342333222       -1.68474663988962       -0.26693896986257
H           -1.69683420021601        3.04714715126334       -0.03023474976904
H           -2.88678022482173        2.07838217196782       -0.94682647140776
H           -2.90461531862252        2.03595426965761        0.82160467972109
H           -1.18214504197945       -3.17008380157179        0.89117395148714
H           -1.22425778329806       -3.22141763631633       -0.89459496150394
H           -2.59073263492172       -2.54352996627825        0.01266605789911
H            1.31846234377221       -2.92616464952631       -0.15362750000427
25
 energy: 5.707997271549 xtb: 6.6.1 (8d0f1dd)
C            3.33417996895836        1.18698880256516        0.22525310228222
N            2.33985049032944        0.13082097042696        0.06376771888574
C            2.59778657857614       -1.23908204005309       -0.00111248439803
N            1.40095396541230       -1.92204071133176       -0.11703835217861
C            0.38676695220825       -1.04183898200677       -0.07049365725559
C            0.92600505590775        0.24364500882701        0.00049714331437
C            0.09249855681421        1.38097511962026       -0.08049605511672
O            0.43128627200494        2.56019709229843       -0.14641279659374
N           -1.30048174271000        1.02527953361819       -0.06559964424715
C           -2.26009016886707        2.11802228104549       -0.05313590049904
C           -1.84824595625385       -0.21826226219444       -0.03205285840810
O           -3.04573333133454       -0.41280843057648        0.01499917171993
N           -0.95563061998056       -1.30397754688877       -0.06584621586795
C           -1.50261282026315       -2.64467970497745       -0.01458630964055
H            3.82267431231582        1.59139810192738        1.29172067869507
H            4.22502445933794        0.84501943878531       -0.29336156689027
H            2.89564222937913        2.06524190915518       -0.24342731198485
H            3.53150536189350       -1.67624648726208       -0.29009554669945
H           -1.69567999668920        3.04745014188954       -0.02810528593261
H           -2.88536359613114        2.07915605428598       -0.94570465159930
H           -2.90409333696827        2.03632925498050        0.82293083780340
H           -1.18034320930261       -3.17081360075880        0.88736606746296
H           -1.22124103046897       -3.22063493658505       -0.89857491474615
H           -2.58932143205118       -2.54488914123298        0.00888535286341
H            1.31687770581910       -2.92622126338569       -0.14234262482172
25
 energy: 5.203907979693 xtb: 6.6.1 (8d0f1dd)
C            3.33361108304365        1.18739236965957        0.22510130741857
N            2.33895520092698        0.13067180767734        0.06464908137537
C            2.60072597060330       -1.24349185449299        0.02362959363510
N            1.40045546836342       -1.92346382283139       -0.11566135296484
C            0.38798237221284       -1.04212378368036       -0.07271499508936
C            0.92665385092071        0.24284981281193       -0.00274974120159
C            0.09212110900472        1.38022555521193       -0.08103573546251
O            0.43239372245388        2.55945842871828       -0.14347025925208
N           -1.30002402302252        1.02559425011167       -0.06501624007655
C           -2.25955210752472        2.11856718651556       -0.05222761810178
C           -1.84751139384216       -0.21791305047679       -0.03303336217762
O           -3.04517711062297       -0.41326388919961        0.01366054197765
N           -0.95458556210413       -1.30359857558097       -0.06821396786467
C           -1.50185879863637       -2.64432109123194       -0.01659531586815
H            3.82000165321800        1.59289407765835        1.28704793665858
H            4.22414742009722        0.84555210736986       -0.29398138475035
H            2.89446074003828        2.06395902388977       -0.24575413404440
H            3.52600112764073       -1.67068492652280       -0.30857956808312
H           -1.69469210521049        3.04769177832459       -0.02705225273025
H           -2.88492270891068        2.07967419285569       -0.94466955628219
H           -2.90328436774950        2.03682394386883        0.82397363359677
H           -1.17963328497288       -3.17060833638692        0.88540478666002
H           -1.22020240908090       -3.22033342566367       -0.90070442528752
H           -2.58861679233751       -2.54486036939850        0.00700249371404
H            1.31476561342745       -2.92766280703537       -0.13197556965181
25
 energy: 5.129943209488 xtb: 6.6.1 (8d0f1dd)
C            3.33466371327430        1.18849782051791        0.22855740202833
N            2.33962206534328        0.12985109819207        0.06499757732991
C            2.60286564259109       -1.24786296882643        0.03171156450824
N            1.39994185713884       -1.92524989297147       -0.11583611686648
C            0.38921057462431       -1.04279140714151       -0.07565343158911
C            0.92859212920813        0.24178499188973       -0.00865383032889
C            0.09146968530151        1.37913689431660       -0.08212119878738
O            0.43249258949232        2.55806947367252       -0.14232396419332
N           -1.29979484176606        1.02609597598651       -0.06579092365153
C           -2.25944704854401        2.11880782382832       -0.05266595837129
C           -1.84683266170150       -0.21799417023146       -0.03382899072405
O           -3.04459704460658       -0.41394203255948        0.01239782710632
N           -0.95368766712475       -1.30314376019012       -0.06869833810376
C           -1.50208884655753       -2.64368407639650       -0.01602996620696
H            3.82254621633830        1.59267810498435        1.28714269886554
H            4.22455113480397        0.85207528753472       -0.29862994148736
H            2.89057601806527        2.06583158920973       -0.23887001548400
H            3.52224015352134       -1.67029717390312       -0.31711821489841
H           -1.69465416030194        3.04781314223023       -0.02776349141200
H           -2.88551228797593        2.07943289679506       -0.94451726879065
H           -2.90264953319180        2.03686517644584        0.82392558973262
H           -1.18025879104971       -3.16940568360951        0.88642272410849
H           -1.22152755250073       -3.22068498914486       -0.89966945461517
H           -2.58885569243313       -2.54339904143847        0.00799127998922
H            1.31334901598737       -2.92945647701861       -0.12794166201105
25
 energy: 5.235939284132 xtb: 6.6.1 (8d0f1dd)
C            3.33589793472051        1.18911502949229        0.23292477809190
N            2.34055457042860        0.12904708231125        0.06672599579292
C            2.60358179012141       -1.25000169948649        0.03231384732990
N            1.39970236506123       -1.92602882918685       -0.11580922032627
C            0.38964234148337       -1.04305169977267       -0.07678038882841
C            0.93032609286898        0.24118295093742       -0.01120258664936
C            0.09104137326330        1.37866545585805       -0.08287273763844
O            0.43185271166091        2.55709767026139       -0.14391652026393
N           -1.29947368728626        1.02642003871578       -0.06728488492273
C           -2.25955817997418        2.11856929804447       -0.05419741257518
C           -1.84648736730268       -0.21837114176451       -0.03411902122464
O           -3.04418797740937       -0.41406465743314        0.01210238182296
N           -0.95324208553776       -1.30280583106861       -0.06811206954180
C           -1.50257575830342       -2.64322127343435       -0.01426256796875
H            3.82628434640209        1.59144774326239        1.29043405263039
H            4.22471434600889        0.85735244706627       -0.30136939688464
H            2.88822397866201        2.06778258429960       -0.23021446521972
H            3.52062015726445       -1.67141662322602       -0.32728109899137
H           -1.69545952537463        3.04786382989464       -0.02966595338820
H           -2.88611002316037        2.07853541772127       -0.94564189245845
H           -2.90254457809317        2.03634831106187        0.82258302522818
H           -1.18114932382985       -3.16794981954451        0.88879237982706
H           -1.22320803903275       -3.22137432671445       -0.89711671369920
H           -2.58930496574198       -2.54187758764091        0.01002276769151
H            1.31307417103702       -2.93023576748214       -0.12901840168643
25
 energy: 5.309217830715 xtb: 6.6.1 (8d0f1dd)
C            3.33598885644602        1.18902515041128        0.23442223508146
N            2.34112537699886        0.12831840811468        0.06751383870059
C            2.60339512832735       -1.24990512981277        0.02847209862958
N            1.39983820251821       -1.92601317834999       -0.11598865630317
C            0.38947281158054       -1.04297046481951       -0.07723492352577
C            0.93116451789498        0.24100487139465       -0.01158149317356
C            0.09124686554404        1.37862435151845       -0.08339540157070
O            0.43186954555378        2.55676592065317       -0.14599022385741
N           -1.29880922242897        1.02642019502053       -0.06819662283533
C           -2.25929020838637        2.11823247429300       -0.05499141702662
C           -1.84635300652527       -0.21867740843040       -0.03395541255703
O           -3.04407475758683       -0.41332678845261        0.01294371828644
N           -0.95325610188952       -1.30271589549375       -0.06755190529214
C           -1.50285269939450       -2.64314758416180       -0.01314448978668
H            3.82832269832008        1.58872235561020        1.29288785660367
H            4.22412832911777        0.86039336190805       -0.30415710902708
H            2.88587938288274        2.06907872602418       -0.22475725114823
H            3.51977709932083       -1.67186323869054       -0.32637892673194
H           -1.69588398973805        3.04793567006945       -0.03075454318964
H           -2.88602942086634        2.07783293416333       -0.94633679190372
H           -2.90227760286936        2.03587752323577        0.82182892017780
H           -1.18141799866305       -3.16732891103922        0.89014048678358
H           -1.22398844961871       -3.22170099631431       -0.89564431753522
H           -2.58955884051905       -2.54133151041847        0.01129286166208
H            1.31379815191714       -2.93022223426130       -0.13240863431366
25
 energy: 5.248005599636 xtb: 6.6.1 (8d0f1dd)
C            3.33552237453025        1.18868006639606        0.23428104356012
N            2.34094723327300        0.12815299634920        0.06866638592727
C            2.60347941975390       -1.24978000467581        0.03251767625024
N            1.39983344885504       -1.92574456617307       -0.11517336655900
C            0.38930675398015       -1.04269570028988       -0.07701286295904
C            0.93114825588532        0.24108103163908       -0.01029867197486
C            0.09141327260981        1.37879720096595       -0.08350534271380
O            0.43197402354579        2.55684609447893       -0.14707482430720
N           -1.29843854350921        1.02633932090249       -0.06835750540825
C           -2.25908752180365        2.11810022372775       -0.05514693430161
C           -1.84626824560504       -0.21876998836971       -0.03384992151721
O           -3.04398232541941       -0.41286480304724        0.01357168054311
N           -0.95322749837660       -1.30269253945271       -0.06787799427458
C           -1.50267255605178       -2.64319766578656       -0.01331384078303
H            3.82783228556043        1.58839215580171        1.29346129361911
H            4.22381126953299        0.85928174927235       -0.30340014067189
H            2.88582299435836        2.06873473077668       -0.22532484822016
H            3.51886205411186       -1.67049871100840       -0.33199657550769
H           -1.69593267696454        3.04798400328361       -0.03087137011772
H           -2.88570521772963        2.07768087982071       -0.94660433452049
H           -2.90217498777776        2.03561126174495        0.82157883788884
H           -1.18113072303353       -3.16723166350123        0.88999682897077
H           -1.22367813736035       -3.22176718002553       -0.89574122314639
H           -2.58936877308814       -2.54145932281713        0.01111953350689
H            1.31392848865908       -2.92995096784017       -0.13260962713613
25
 energy: 5.247787906267 xtb: 6.6.1 (8d0f1dd)
C            3.33515661611747        1.18853983623848        0.23325149220368
N            2.34081793473315        0.12817829486818        0.06836486626308
C            2.60351040666783       -1.24969550999343        0.03258100735130
N            1.39975730367930       -1.92575614491240       -0.11474217036202
C            0.38931613620547       -1.04268969618370       -0.07684385477890
C            0.93084074659235        0.24114493547102       -0.00997836111923
C            0.09150083064994        1.37878888738654       -0.08341351012232
O            0.43219761014944        2.55696382312969       -0.14670860309621
N           -1.29851023256165        1.02628482834744       -0.06801740069672
C           -2.25900039672563        2.11821689554030       -0.05488492258035
C           -1.84625380361857       -0.21870031998657       -0.03378639999802
O           -3.04399279835105       -0.41287708016720        0.01355668436726
N           -0.95328080506326       -1.30276444881007       -0.06799562274621
C           -1.50258618584931       -2.64326847441907       -0.01375932033312
H            3.82793890239333        1.58854805540973        1.29260356243400
H            4.22338239396256        0.85921860723074       -0.30385778294902
H            2.88552415788275        2.06847389129141       -0.22609987512711
H            3.51891651850769       -1.67040890695747       -0.32966058736310
H           -1.69557521937358        3.04795142698371       -0.03050144312609
H           -2.88550359437786        2.07795661839222       -0.94642304624591
H           -2.90211968600983        2.03578839505739        0.82179383903729
H           -1.18102866519328       -3.16756466424581        0.88942505092943
H           -1.22329925157921       -3.22162126109337       -0.89636535697644
H           -2.58929012401698       -2.54174906212903        0.01058358779434
H            1.31379587311524       -2.92993032427671       -0.13208793661233
