  72
        -99.33585694
 N         -1.1601274881        1.2919292777        4.2706889306
 C         -1.4025922612        0.7476748331        3.2763743232
 C         -3.5976534808        1.9234832709        0.1974364488
 C         -4.1168602236        0.6174720133        0.1258038262
 C         -5.3413164653        0.3136470690       -0.5292476064
 C         -5.8259484703       -0.9708289622       -0.6162018545
 O         -6.9628307749       -1.3379784980       -1.2419832933
 C         -7.7602783125       -0.3557009064       -1.8588802145
 C         -5.1041352053       -2.0485513111       -0.0188769516
 O         -5.6588631965       -3.2598372512       -0.1459257296
 C         -5.0127378998       -4.3808386060        0.4137021470
 C         -3.9085518705       -1.7609938885        0.6381578966
 C         -3.4229687315       -0.4775051088        0.7040302347
 C         -2.1707244647        2.1374679527        0.5685905719
 C         -1.1935221077        1.4551810872       -0.4083331565
 C          0.1439730847        1.1410985186        0.2680243883
 N          0.9567424370        0.2244092093       -0.5040309001
 C          2.3763698338        0.2814194228       -0.2279798156
 C          3.2224730018       -0.0749675672       -1.4634099037
 C          4.6773506310       -0.0448806179       -1.1000391140
 C          5.4359799486        1.1042636127       -1.2714519392
 C          6.7672874544        1.1417763738       -0.8893669858
 C          7.3712560698        0.0287896444       -0.3188784263
 O          8.6499925642       -0.0470876725        0.0923447273
 C          9.4929685068        1.0704899098       -0.0675792398
 C          6.6022113919       -1.1556211037       -0.1373776964
 O          7.2632393988       -2.1887833574        0.4198927722
 C          6.5933623221       -3.4108572664        0.6187700984
 C          5.2724054200       -1.1675161071       -0.5298696511
 C          0.4373843021       -1.1229275146       -0.5294679582
 C         -4.4304972527        3.1438679969       -0.0356297126
 C         -4.5831351501        3.9210536228        1.2818840003
 C         -3.8332545570        4.0396342223       -1.1251433861
 H         -5.8850947585        1.1044605688       -1.0159857323
 H         -8.1175738775        0.3835386831       -1.1353078193
 H         -8.6104337229       -0.8909242626       -2.2767835639
 H         -7.2204874686        0.1510494133       -2.6653123547
 H         -4.9182033753       -4.2861261159        1.4995039869
 H         -5.6484593107       -5.2327318729        0.1801188176
 H         -4.0238501506       -4.5341208617       -0.0284599886
 H         -3.3528284337       -2.5534661162        1.1137380571
 H         -2.5220573178       -0.3050110997        1.2657808875
 H         -1.9423229502        3.1997465553        0.6228803292
 H         -1.9992962559        1.7223527249        1.5719437589
 H         -1.6457787743        0.5369690291       -0.7754260751
 H         -1.0221511590        2.1023817502       -1.2689500001
 H         -0.0516792849        0.7255164042        1.2716993433
 H          0.7002647297        2.0716297021        0.3986525913
 H          2.6468530707       -0.3965786997        0.5969080038
 H          2.6382197455        1.2963192728        0.0773745466
 H          3.0083986415        0.6447067786       -2.2530708782
 H          2.9553034626       -1.0681777161       -1.8243332988
 H          4.9892748685        1.9809984314       -1.7143130191
 H          7.3315189373        2.0475247131       -1.0404276795
 H          9.1299191567        1.9306881791        0.5032019527
 H          9.5942997057        1.3475700721       -1.1212930098
 H         10.4623159522        0.7630611228        0.3199253181
 H          7.3301645134       -4.0795174271        1.0597006419
 H          5.7494782334       -3.2985638547        1.3068297274
 H          6.2408136762       -3.8335794226       -0.3269697956
 H          4.6818903671       -2.0612803279       -0.4013000588
 H         -0.5273281112       -1.1462381618       -1.0329181664
 H          0.3105084018       -1.5293205007        0.4847238600
 H          1.1164210321       -1.7680863239       -1.0794775886
 H         -5.4360286463        2.8591186773       -0.3486363498
 H         -3.6258995469        4.2883779468        1.6408340196
 H         -5.0173060879        3.2820208424        2.0471783902
 H         -5.2404706306        4.7726132090        1.1280661602
 H         -2.8857354359        4.4723816568       -0.8180859385
 H         -3.6758532749        3.4711790058       -2.0388819847
 H         -4.5184043684        4.8547762765       -1.3422285538
 H         -0.9637621527        1.7345420506        5.1410521799
