25
 energy: -41.926532656884 gnorm: 0.004630455517 xtb: 6.6.1 (8d0f1dd)
C            3.23767964838214        1.03372912128895       -0.60856799402065
N            2.29305434041486        0.16854734816202        0.00700313236472
C            2.45795685125642       -0.93686268249547        0.91159701452349
N            1.54101330481281       -2.00822387725745        0.50769862958942
C            0.97258162370495       -0.89111534204233        1.18078106399452
C            0.94468215986742        0.21064442268297        0.16117344991834
C            0.04370513500999        1.12305482744668       -0.39799969496010
O            0.24609245596490        2.03896568692207       -1.15709703532070
N           -1.38781382097788        0.92233041699653        0.06504065143524
C           -1.97893551653636        2.02904198754765        0.79768698608366
C           -2.07956916937563       -0.06459287044955       -0.33073677070265
O           -3.29841707899834       -0.52234585238003       -0.26193000602703
N           -2.19769811510377       -1.14607843492886       -1.11013766082423
C           -1.77473344920316       -2.46795864187902       -0.76457429653245
H            3.83970554534132        1.55025649890614        0.14505562324928
H            3.91253173132129        0.45008870302861       -1.23873889250254
H            2.70639273446285        1.76790133494328       -1.21164119689780
H            3.34704872674295       -1.09854432143515        1.49070462259556
H           -1.72856871130760        2.95342912409596        0.27574855964455
H           -3.05941780293806        1.91318186159064        0.85079879559791
H           -1.55667491189733        2.05946651678699        1.80188644826679
H           -1.75387681770713       -2.65302744549094        0.31122427276443
H           -0.77160991845785       -2.57862187424656       -1.17824142585518
H           -2.44511078317339       -3.17102794604865       -1.25662701928933
H            1.65041335251126       -2.86400002013713        1.04106436081318
