25
 energy: 33.281016609710 xtb: 6.6.1 (8d0f1dd)
C            3.35878775208752        1.11037477914168        0.00291328851180
N            2.30631038569748        0.14798227037330        0.03290782167640
C            2.46393336117438       -1.12919413284498        0.49392029697233
N            1.27808939441057       -1.78516781960744        0.39139915188335
C            0.39637606264531       -0.95564550867626       -0.20464777407754
C            0.95314922165708        0.29808215250168       -0.40268191812875
C            0.07312630860210        1.41968113136248       -0.63694102333120
O            0.39355082260795        2.51543605460207       -1.06086376330227
N           -1.35905435999605        1.26091813872762       -0.13465554052739
C           -2.41851588693965        2.15082943355426        0.38104988809076
C           -1.64770250707921        0.00584213641065        0.25553602164535
O           -2.43669671208225       -0.32733760014536        1.11280375082964
N           -0.93647504454589       -1.11352022905689       -0.44029578368377
C           -1.40500846368280       -2.49568899431256       -0.51730378368793
H            3.56009089165917        1.52526753810562        0.98400161310104
H            4.27968556748407        0.69048683740513       -0.38897875408105
H            3.06269665976926        1.94760255077420       -0.60778383673446
H            3.35119052330778       -1.46967077420368        0.96472920950218
H           -2.33685515095179        3.17675433425155        0.07060034191269
H           -3.29822655253227        1.76824254649157       -0.10480713633813
H           -2.49413519289073        2.11874810913101        1.47848587979839
H           -0.85521655351857       -3.16750157168660        0.16135851043793
H           -1.27734272922281       -2.82826303733459       -1.55187386631389
H           -2.44572561750780       -2.60066298729295       -0.25397014896102
H            1.09198110478038       -2.72267824513766        0.70331160487300
