25
 energy: 72.191228829936 xtb: 6.6.1 (8d0f1dd)
C            3.54585306569262        0.84681909174364        0.01662321720379
N            2.58763085448019       -0.21798565809165       -0.03842379237338
C            2.62544788525255       -1.43218285242455        0.57496291409319
N            1.43469734892211       -2.06850129622064        0.34051617631235
C            0.59948568078851       -1.28975526772163       -0.44702457388884
C            1.36398908591807       -0.07975581273685       -0.70971121870664
C            0.82501345714023        1.00407086554926       -1.24623908779839
O            0.63123879426893        1.94862353146322       -1.93276756451260
N           -2.16760301618708        2.38039993844607        0.40266225793282
C           -3.55531887610093        2.53418500197463        0.64440363111469
C           -1.38729066856105        1.55079960736573        0.73343144708800
O           -0.74884504663498        0.78997100966011        1.32488403371552
N           -0.57339786332374       -1.44353153510526       -0.89490156218442
C           -1.25361778133188       -2.68228043598377       -0.85330761205539
H            3.16444355923475        1.75168550606560        0.50885719992949
H            4.42237042753000        0.43118836043804        0.49444067981683
H            3.77674931108942        1.17422298925477       -1.00707105621043
H            3.39346291349858       -1.80108903647535        1.27092227169657
H           -3.72427486183430        3.57461315465274        0.41315898450875
H           -4.08201836367977        1.85043147493128       -0.01237894128713
H           -3.84243950886605        2.27738685351148        1.66717912164249
H           -0.57201456587067       -3.46127025571377       -0.55664733173982
H           -1.61424417387586       -2.85401393820597       -1.87179167632477
H           -2.11001684517706       -2.66944271751286       -0.18032957350647
H            1.18978263671822       -2.96258337778497        0.73812192782225
