25
 energy: 98.359540808150 xtb: 6.6.1 (8d0f1dd)
C            3.44114134098121        1.02435017320576       -0.01120830171438
N            2.40974764487484        0.04223194777447        0.02240060361790
C            2.44353833779140       -1.11295007518654        0.71164314625620
N            1.26961412246113       -1.77962910636540        0.53767123341878
C            0.43375056145356       -1.02921889874090       -0.26335673899634
C            1.11892506686373        0.21214885490486       -0.52147315589479
C            0.46182754249616        1.29849021413808       -0.93490637566979
O            0.27398249942808        2.27596824747853       -1.55561517818549
N           -1.66433000757746        1.70199984819551       -0.02689416536211
C           -2.87094281721642        2.29094238629145        0.48558288841377
C           -1.59615279493640        0.59990475480695        0.50302798848145
O           -1.80597732008937       -0.15878065371903        1.37931713642226
N           -0.76486664598394       -1.20291679098929       -0.66386053380381
C           -1.33338965451454       -2.52305100490513       -0.72001395219701
H            3.45703493360150        1.65934284171868        0.86816471522116
H            4.38965718305682        0.52170103937677       -0.13986863588673
H            3.27909434401025        1.72245225394083       -0.82050604418038
H            3.21333234104979       -1.34546881926579        1.40431744591247
H           -2.87944956640865        3.27808685689666        0.07956859698761
H           -3.61148875725010        1.65464790441720        0.08227832774537
H           -2.90995814900823        2.24214797611302        1.57236916658523
H           -0.71974556711985       -3.25045522931367       -0.16968188037357
H           -1.40686917481334       -2.75269770800464       -1.78574047858679
H           -2.32435466204118       -2.61571968738554       -0.29102430707206
H            0.99806567925831       -2.60329712673675        1.04236625004914
