25
 energy: 82.800650934294 xtb: 6.6.1 (8d0f1dd)
C            3.52884310852095        0.89990687543217       -0.01309618387107
N            2.53109997666301       -0.12673444872333       -0.04353097617884
C            2.57255565074902       -1.32885486995198        0.56562901537437
N            1.38558851601290       -1.97291406762477        0.37416692096502
C            0.54735809389590       -1.19785578285968       -0.40923020741328
C            1.30105023402598        0.00947533639955       -0.68745969020349
C            0.65746716895681        1.07432814082665       -1.19039374517140
O            0.44524700495345        1.98753424212094       -1.91487170555854
N           -1.97985216110871        2.32069269118881        0.21929952799412
C           -3.36639481085783        2.45328509747058        0.58665532600309
C           -1.35998158469478        1.37486900377663        0.64216339453581
O           -1.04287792881100        0.59381791643066        1.45695404849592
N           -0.63329944939838       -1.34354331090785       -0.82784406475113
C           -1.30610956007422       -2.58614510742859       -0.84235595993977
H            3.24434794904630        1.78358521692516        0.57350087647193
H            4.43213971747067        0.40860778663289        0.33414032411657
H            3.67450746525621        1.30988927477247       -1.01878177872724
H            3.31829362330634       -1.67332700159002        1.26885518697103
H           -3.54489959134691        3.48593421770357        0.33696289374300
H           -3.91452358694486        1.73168950681806       -0.00655837258405
H           -3.58463925161215        2.22209855216749        1.63184180857628
H           -0.60217615790731       -3.37991538600812       -0.65044529425851
H           -1.67910296313290       -2.67984495792859       -1.86593480652410
H           -2.14482583302691       -2.65273498299219       -0.14527297682518
H            1.10996561222012       -2.82255922826392        0.83453674773841
