25
 energy: 22.669408180943 xtb: 6.6.1 (8d0f1dd)
C            3.34095777866136        1.12857225453108        0.01456295390174
N            2.30902995048265        0.14344110283955        0.02711133865549
C            2.49545195806903       -1.15836004654080        0.41038049420483
N            1.30743458950098       -1.81902187684738        0.31597932913695
C            0.40133300684479       -0.97114894766717       -0.20227808775272
C            0.94982815303040        0.28893606654382       -0.37041808224505
C            0.08381016426785        1.41951813198338       -0.55816655638707
O            0.42127105754320        2.54914357245242       -0.87930074809134
N           -1.32708885384115        1.22001008943126       -0.10929414278374
C           -2.36685990159357        2.13948972196373        0.36530569657303
C           -1.66342577011392       -0.03925249495889        0.23426880626441
O           -2.56932433677427       -0.35021654121043        0.97555200214479
N           -0.93402842109475       -1.14485142505029       -0.40236376657273
C           -1.41360092066625       -2.51923517098485       -0.45156663636075
H            3.59389744483120        1.47356941768693        1.01155681504914
H            4.24675788629818        0.76074747213674       -0.45755259658178
H            2.99527400715381        1.99747117855711       -0.52257317758573
H            3.40746864688800       -1.52015321343580        0.80788010188945
H           -2.19648653565012        3.16382823002812        0.08112950732362
H           -3.23448580909412        1.82843824865682       -0.20215901222092
H           -2.50907110994629        2.09163853368885        1.45477576833170
H           -0.89918523488231       -3.17233283434427        0.27020649610311
H           -1.24636179969752       -2.88521669764512       -1.46746127418397
H           -2.46760306180995       -2.58752866055493       -0.22874011167411
H            1.13197587075809       -2.77397713130190        0.57458211501491
