25
 energy: -0.507085852766 xtb: 6.6.1 (8d0f1dd)
C            3.29596295870349        1.16698837064536        0.05191205763048
N            2.32942511209351        0.11754951328580       -0.00835122043588
C            2.58334365423836       -1.22980891459992        0.15218933731496
N            1.38556774263347       -1.90334486639422        0.10512838638810
C            0.41102048593800       -1.01056588631406       -0.11642310019150
C            0.94328671919400        0.26436378662342       -0.17627368118834
C            0.12115432354811        1.41757366677322       -0.25067635202156
O            0.48598331926730        2.58640665963586       -0.37147825491393
N           -1.26490315266274        1.12899070520831       -0.01688650292903
C           -2.28462781624342        2.14312034765692        0.17462747215264
C           -1.74551185010664       -0.13214609123220        0.13004957715376
O           -2.90968337193267       -0.36284889107439        0.39233822436379
N           -0.92414736930872       -1.23143432802287       -0.18986125448192
C           -1.44119629973390       -2.58165388203522       -0.23561851141975
H            3.67948447491065        1.32996185169629        1.06062597955087
H            4.13833136607203        0.95423454142388       -0.60504005362830
H            2.82422859260917        2.08539799853488       -0.27712550454730
H            3.54321894010914       -1.63952927135778        0.32792453833516
H           -1.82944466217666        3.11587044563622        0.04077082504329
H           -3.02861808122860        1.99239438745492       -0.61294002578154
H           -2.72651152269774        2.07365018930208        1.17214830084765
H           -1.03283645250186       -3.19126589878802        0.57728763461527
H           -1.17641216294943       -3.02839063854407       -1.19668019590945
H           -2.52221914806266       -2.55265265695137       -0.13614116016265
H            1.25398258804485       -2.89549214688979        0.19678317533769
