25
 energy: 46.264247335490 xtb: 6.6.1 (8d0f1dd)
C            3.37858256036114        1.09064070341221       -0.00629936474495
N            2.31011801840533        0.14669648441359        0.03926124112715
C            2.43985593660845       -1.10449024024034        0.56821342066030
N            1.25419947042096       -1.75545818059854        0.45889680806256
C            0.39535525440997       -0.94368057192401       -0.19845755669306
C            0.95999047353659        0.30742403596051       -0.41259899269406
C            0.07780187522234        1.42464312056539       -0.68821360572549
O            0.36186445072962        2.46671587001769       -1.23564891391537
N           -1.38813901662504        1.31246265731348       -0.12751264579042
C           -2.48612174712807        2.16531581560366        0.39801114735966
C           -1.62694170258530        0.06028312209869        0.28455407645592
O           -2.30768479489082       -0.29505645498998        1.22198955005853
N           -0.93278003150043       -1.08095865618251       -0.46147267046358
C           -1.39766343843211       -2.46857622204087       -0.57686970640758
H            3.52760632048333        1.57864430406680        0.94974507374596
H            4.30863808651161        0.62370720699448       -0.31322789556387
H            3.13335461333196        1.88744161260378       -0.68943677599114
H            3.29754328863449       -1.42101983875316        1.10942540030004
H           -2.47370230078697        3.18419502856711        0.05844921680853
H           -3.35055761782132        1.70906982315342       -0.04033356853163
H           -2.57206140634908        2.16117930565398        1.49353164856925
H           -0.81294776486928       -3.16023071954368        0.05233327969088
H           -1.31258306770031       -2.76695316680618       -1.62787376678213
H           -2.42207125056303       -2.60993566202525       -0.27184001522333
H            1.05509630009410       -2.67342691327201        0.82013530663537
