25
 energy: 88.890515007817 xtb: 6.6.1 (8d0f1dd)
C            3.50733881587651        0.93836171403897       -0.02440367932173
N            2.47143677945836       -0.04662127018830       -0.01722171230620
C            2.50687694122603       -1.21985642228541        0.63506266004510
N            1.33747114883686       -1.88458985168498        0.44489850369341
C            0.50643881114362       -1.12357001208492       -0.36054557946187
C            1.23832062269993        0.09314098938029       -0.64506249524174
C            0.50362966887739        1.12412964791931       -1.12595641870544
O            0.19481259975722        1.95202125396572       -1.90761019102716
N           -1.83048659117008        2.18503278228821        0.10563838670567
C           -3.19428230341633        2.37881734767289        0.54126918339797
C           -1.35867166643202        1.15790824412995        0.56399161925671
O           -1.23371930902671        0.37114749946361        1.44433270838861
N           -0.67166252788946       -1.27320993896815       -0.78203828360231
C           -1.34076235266693       -2.52109021958821       -0.82342999553610
H            3.32616521045185        1.76531202138234        0.66848479420108
H            4.42919106682637        0.40256553437546        0.18131214713189
H            3.55878962136606        1.43748121065229       -0.98986823975975
H            3.26325147769979       -1.49870392510812        1.33939721039019
H           -3.35608389120368        3.40170236162761        0.25108851536747
H           -3.76815358275500        1.63025775684613        0.02744027474580
H           -3.35123967349246        2.20388484435890        1.60709539115941
H           -0.65197643620779       -3.31794936676310       -0.53038824623544
H           -1.64071230235856       -2.59832387593560       -1.87703998092938
H           -2.21844186949353       -2.59986845917408       -0.17546441825612
H            1.03909586235429       -2.68650277644329        0.96967607001580
