25
 energy: 5.783217442781 xtb: 6.6.1 (8d0f1dd)
C            3.31059825634086        1.15831998181481        0.04019131141266
N            2.32232756838517        0.12885693197397        0.01047154346438
C            2.56001967450962       -1.20956777611349        0.23475989843473
N            1.36584969788187       -1.88015702911854        0.16742629331089
C            0.41246640842466       -0.99750234452204       -0.16035440505150
C            0.94619317037803        0.27401463973458       -0.25240805238264
C            0.11060482509359        1.42164959238928       -0.35772366155442
O            0.47046515472553        2.58292271931614       -0.53184149652442
N           -1.27532646099598        1.15452375534745       -0.04264828138520
C           -2.30655815462931        2.13718370218148        0.25569523488478
C           -1.70103806113671       -0.11094647706592        0.19632345136863
O           -2.81135851779782       -0.36469929848996        0.61641840265314
N           -0.92307053082817       -1.20519498217833       -0.26626062404970
C           -1.43018695889461       -2.56190141114098       -0.30655406570681
H            3.65596979883784        1.37636009492531        1.04942802454323
H            4.17529976589537        0.89566849548060       -0.56578818139535
H            2.87576622667506        2.06624596384986       -0.35520357756356
H            3.50860586851673       -1.60721373779766        0.47996694205685
H           -1.93468422033790        3.13233420975614        0.06243909140184
H           -3.09888299455488        1.94336261316807       -0.46953579728816
H           -2.64475249076734        2.07075799713529        1.29494605611906
H           -0.98703956093904       -3.18622144205589        0.47921083002878
H           -1.19519028513700       -2.98236880144401       -1.28669210966915
H           -2.50483167376675       -2.56182773003225       -0.16645670279383
H            1.21575911096144       -2.86271654388681        0.31323673452867
