25
 energy: 91.225160831057 xtb: 6.6.1 (8d0f1dd)
C            3.49580580615029        0.95588486027017       -0.02724430813446
N            2.45490936379193       -0.02187975729297        0.00102886405912
C            2.48247849453574       -1.18008615968686        0.67832811850944
N            1.31607110361522       -1.84797158954367        0.48875675385600
C            0.48795571716585       -1.09672591728482       -0.33412497345878
C            1.21071678717255        0.12636291710916       -0.61225504594111
C            0.49263125633929        1.17117552838260       -1.07789571181716
O            0.19730666798059        2.02229384272145       -1.83752979875580
N           -1.78048100266556        2.09475965201129        0.06573241090440
C           -3.12238454441944        2.34788940660430        0.52812294409534
C           -1.39166712926610        1.03738668377346        0.53939353881530
O           -1.35117425870629        0.23640409341560        1.41661574373054
N           -0.68597855024163       -1.26006557275006       -0.76420460908074
C           -1.33527180131330       -2.52238486153566       -0.81960879660669
H            3.36502526042147        1.74641465279473        0.71521487794801
H            4.42751981310283        0.41607929380732        0.10198454249616
H            3.49231847568991        1.50361941572873       -0.96379427207474
H            3.23063418104572       -1.41344647726617        1.40251189273231
H           -3.26387874880630        3.36341818189725        0.20559735083722
H           -3.71409399293869        1.58762512125179        0.06646987177997
H           -3.24308955991000        2.20956490281264        1.60254234439330
H           -0.66135533786435       -3.30434017508082       -0.45197199867431
H           -1.57947149482649       -2.63712531075281       -1.88189849385446
H           -2.24315706161242       -2.60179541371252       -0.21512028862526
H            1.00717089867930       -2.62297689746030        1.04703194044375
