25
 energy: 59.431934713917 xtb: 6.6.1 (8d0f1dd)
C            3.57267598513317        0.78386298391793        0.09710092105916
N            2.61649362568736       -0.26773128325484       -0.02597260727221
C            2.65123912873756       -1.46658022807049        0.60012305533640
N            1.51898250915259       -2.16235404550200        0.27382226457516
C            0.69137296564148       -1.41463654124664       -0.56180611955400
C            1.42783315752571       -0.16498772971746       -0.76901104165068
C            1.03405101826062        0.92369117837378       -1.40690809304469
O            0.63509780520945        1.85381106599159       -2.02191832659763
N           -2.44916985177441        2.40767617820866        0.76451592158910
C           -3.85081838639416        2.58779018686642        0.77567787047179
C           -1.47265041133934        1.75153656298766        0.88770687627078
O           -0.43811938172517        1.23644249532580        1.00508142460703
N           -0.44866044762370       -1.65580737467503       -1.06669519410407
C           -1.17168262011944       -2.87543125466614       -0.88121284616751
H            3.10593605585023        1.67746800925383        0.52134299095887
H            4.38176660322018        0.45824184542250        0.74484480156020
H            3.98058945151853        1.02901706675055       -0.88950295699071
H            3.43945220109193       -1.80759621385510        1.23172435494192
H           -4.02803322959827        3.64995257555846        0.58703657040833
H           -4.32098675197329        1.99283620262668       -0.01335342576026
H           -4.28885619271582        2.32226111595680        1.74439790195788
H           -0.58070085956495       -3.68513785181100       -0.45112202264558
H           -1.54055418439810       -3.17825743940549       -1.86195439429535
H           -2.04005520243488       -2.69049030901199       -0.24344944362934
H            1.32780006593177       -3.08638752419351        0.62049262491323
