25
 energy: 60.482400553250 xtb: 6.6.1 (8d0f1dd)
C            3.56526216182717        0.79278467662458        0.07666004882398
N            2.62618781760030       -0.27438610298362       -0.05293092568808
C            2.65387805655582       -1.46286237849543        0.59391525475396
N            1.51373946077638       -2.14980894557855        0.28809775522900
C            0.67490046027939       -1.38958983607239       -0.52362365947124
C            1.40620681413870       -0.14064763240549       -0.73495023950639
C            1.00893437371501        0.92179804848511       -1.41102127604630
O            0.59059727427072        1.87249482948355       -1.98714165525570
N           -2.38923183628912        2.40103831288837        0.70054616336872
C           -3.79123357987876        2.59746720942399        0.75832063934411
C           -1.43127578178183        1.73090045052361        0.85538017275607
O           -0.46628992507057        1.12938187184796        1.07876111667829
N           -0.47116303963480       -1.61342198993852       -1.01720528242201
C           -1.17662387050649       -2.83867810977228       -0.86629028199346
H            3.11377748824569        1.67557866497474        0.53456597094001
H            4.38010828067675        0.45505567376503        0.70205688771584
H            3.94548699510825        1.04644293826452       -0.92022228880905
H            3.42352922416919       -1.78988201760709        1.24719029010265
H           -3.95262148167487        3.64907463871067        0.54642581242517
H           -4.30154691012285        1.98807971756789        0.01168416880827
H           -4.19135028698596        2.35581117586831        1.74771119205471
H           -0.54943478010286       -3.63778375448562       -0.46940983572583
H           -1.54904780471448       -3.10498642251193       -1.85669144029102
H           -2.04102511252080       -2.68277379717137       -0.22116488269216
H            1.30978426185107       -3.06442800335309        0.65015705899458
