25
 energy: 72.528724407657 xtb: 6.6.1 (8d0f1dd)
C            3.40771930487190        1.05909958352053       -0.00963017245294
N            2.33884215522109        0.12004795694334        0.05476948800059
C            2.42336630674398       -1.10040932025342        0.63348402598603
N            1.23795404580480       -1.73787016937425        0.51816986952474
C            0.40022815194553       -0.94825769278783       -0.20912220541752
C            1.01921211380429        0.29128389448038       -0.45066810182385
C            0.24357421946053        1.42483724450364       -0.76216259147766
O            0.32772015523842        2.37986896098290       -1.45728550348295
N           -1.50612083134904        1.38999259172140       -0.11469559537700
C           -2.59570329740530        2.17420918461025        0.42529362297039
C           -1.61925515118044        0.15560503570746        0.32445115837612
O           -2.15081511294539       -0.26558888105883        1.33049875060402
N           -0.90746205793664       -1.05787757700176       -0.49094348097018
C           -1.38235454214136       -2.44576726312520       -0.63544648978788
H            3.49184876828427        1.63171871702341        0.91126109302120
H            4.34660499698531        0.56641985259484       -0.22808767334420
H            3.20481753053092        1.81075385445723       -0.76039908825879
H            3.25275167678878       -1.37480118751543        1.24457216835265
H           -2.61324347993386        3.16685746083740        0.01350201335580
H           -3.44625103303747        1.67582130732702        0.05726466865399
H           -2.68464636415872        2.19101789853226        1.51901069890518
H           -0.76644937723640       -3.15306130871878       -0.05886266458471
H           -1.35048505516528       -2.71237868651253       -1.70079997835852
H           -2.39109876830002       -2.61763094897561       -0.28505146747525
H            1.02582208432715       -2.63661145037587        0.92338197259988
