25
 energy: 66.840683959731 xtb: 6.6.1 (8d0f1dd)
C            3.55483164014811        0.82098593886037        0.04089942434932
N            2.60453305055883       -0.24932347238212       -0.03398457307901
C            2.63795487455475       -1.45593877536051        0.59696344517728
N            1.46135862529218       -2.11117841649335        0.33655627160032
C            0.62477457431073       -1.33548547492832       -0.45983509051387
C            1.38042844818256       -0.11519219894874       -0.70520067124528
C            0.90394382377133        0.95908914131312       -1.30772854428112
O            0.65578456697706        1.86921325810752       -2.02252425702320
N           -2.26312564953012        2.37901075283332        0.48970331301227
C           -3.64787826996581        2.55644837516316        0.67976901252801
C           -1.40393120124325        1.61944834279984        0.78006129024090
O           -0.62565357566774        0.90347812730880        1.25037569774705
N           -0.53926752779613       -1.50428612845706       -0.92855223725864
C           -1.22691621051582       -2.73853793399178       -0.86176630610898
H            3.14801065374562        1.72148862651630        0.51711014271101
H            4.41249412817239        0.43249918515722        0.56870488054294
H            3.83293086366554        1.12432106372717       -0.97833266336658
H            3.42870448224906       -1.79437774715225        1.27460234892800
H           -3.80892754796956        3.59995493690967        0.45857480994338
H           -4.16683945810992        1.90146492362364       -0.01167977924532
H           -3.96595252279850        2.29775164281584        1.69395389080750
H           -0.56302216577734       -3.51780025651882       -0.51494867055838
H           -1.58210105453761       -2.94248914778705       -1.87732194208719
H           -2.09207273957779       -2.67820522918832       -0.20471041582389
H            1.23905569945666       -3.02549835966640        0.70869169961396
