25
 energy: 59.720462935966 xtb: 6.6.1 (8d0f1dd)
C            3.57922678900440        0.77079793301924        0.11955986096432
N            2.61462557481337       -0.27186020541711       -0.00618772450948
C            2.64367877430130       -1.46919592748536        0.60362328471456
N            1.52674228187493       -2.17021233315495        0.28085640195353
C            0.69284180126916       -1.42500446836119       -0.55850667811189
C            1.43110632316032       -0.17418865364211       -0.75421822273745
C            1.04070313340111        0.89848526897994       -1.41018000045666
O            0.67171053751546        1.82140343674694       -2.04418376795835
N           -2.45301211432359        2.40079825053719        0.83762592507843
C           -3.84563011839352        2.60036883696328        0.80242090393253
C           -1.46937013901570        1.74717170388210        0.86301979191462
O           -0.40742303523769        1.27782197496083        0.89330561023244
N           -0.43122926736811       -1.69783447574175       -1.07596412401800
C           -1.15834586493364       -2.91175141443019       -0.88175126009264
H            3.11556952605572        1.65984787973615        0.55409166643283
H            4.39739927731992        0.44409310208228        0.76016441939759
H            3.97659835932121        1.03068319437924       -0.86480462882532
H            3.43242100600664       -1.80263526492620        1.23317438311860
H           -4.02146598384561        3.65523971881560        0.58798054002026
H           -4.30929894594277        1.99347547988690        0.02263204935598
H           -4.28976276054674        2.35494977103269        1.76990118409105
H           -0.60029466534360       -3.73771912654449       -0.42200328138601
H           -1.52445098705537       -3.22905690105175       -1.86054640103544
H           -2.03269886497430       -2.68941195277115       -0.26393622559707
H            1.33257366790934       -3.08723703875261        0.64096020571619
