25
 energy: 59.436575628644 xtb: 6.6.1 (8d0f1dd)
C            3.58235302179848        0.77002012478211        0.12224107108415
N            2.62446079216216       -0.27802580723935       -0.02061176856894
C            2.65009801121287       -1.47677637622710        0.60791271109415
N            1.52061667791893       -2.17362986787059        0.28727001854103
C            0.69302959303933       -1.42636936255382       -0.54687838261905
C            1.42599795531268       -0.17665056100226       -0.74690385041356
C            1.01602126194436        0.88223915807835       -1.41212834888922
O            0.71811890543577        1.79889128319957       -2.09057744597706
N           -2.42119657341659        2.38710700542996        0.85375852827253
C           -3.80849331743228        2.60145653351688        0.79861804242958
C           -1.44988148252692        1.71328705881525        0.85421891388788
O           -0.39531838503699        1.23400977366034        0.90300611576816
N           -0.43010272336851       -1.69146255813449       -1.07946160326816
C           -1.15839317858230       -2.90728747448290       -0.87757824512768
H            3.11821711273471        1.65757176501735        0.55945625142098
H            4.38974467616696        0.44329366416473        0.77837066510780
H            3.99699136500250        1.02598381138375       -0.85834143793263
H            3.41423390658703       -1.77129300773907        1.28714027736458
H           -3.96798690640446        3.65847993497015        0.57797843832979
H           -4.26433793201829        1.99531517357319        0.00739632323754
H           -4.25843975092133        2.36182766144120        1.76729890549287
H           -0.59599768411486       -3.73743504540995       -0.42990649267355
H           -1.52972673851132       -3.22955260410873       -1.85253146089786
H           -2.03307723099533       -2.69962658733267       -0.25285872482972
H            1.30360077737813       -3.07302069935459        0.67672465059714
