25
 energy: 151.298696443362 xtb: 6.6.1 (8d0f1dd)
C            2.23746976625155        1.75456044017928       -0.10730665625995
N            2.15299963852366        0.41542686327295        0.00768749201756
C            4.89130872007029       -0.67963871727443       -0.17651613916729
N            1.18270572189296       -2.20700692793987       -0.01857107991507
C            0.33728082508270       -1.25742484441191        0.00046962978473
C            0.89277746603335        0.05663628853274        0.05157998471541
C           -0.01501808242973        1.17110392304255        0.04656268339702
O            0.65115750182719        2.31108913167278        0.01628702881991
N           -1.34600747846643        1.01422647348672        0.05647575950272
C           -2.26794106569642        2.15520360322390        0.10517529440382
C           -1.93378741585837       -0.25795511957735       -0.01239176201581
O           -3.14088884928361       -0.36499520774261       -0.04588981823684
N           -1.06866108398111       -1.32689074460835       -0.04134928739539
C           -1.70331284728903       -2.63444590846262       -0.11061001095900
H            2.39309931354911        2.33579703661449        0.71669049076627
H            6.05348009941360       -0.70732767275525        0.12691216901508
H            2.80119796159296        2.18188128937016       -0.97282110672622
H            4.79242720749771       -1.73736080930646       -0.09996262357960
H           -1.66263053065165        3.05035952183343        0.18123694749858
H           -2.87967840144597        2.17222265701164       -0.79353267507667
H           -2.92281329237687        2.05830256262569        0.97164948046342
H           -1.51570384981836       -3.24576631369649        0.77216738693740
H           -1.44378219016402       -3.18160636267664       -1.01562670334706
H           -2.76835361238221       -2.43953458077243       -0.14055623381457
H            0.81641069386265       -3.13867995007017       -0.07767766107926
