25
 energy: 144.281678299967 xtb: 6.6.1 (8d0f1dd)
C            2.73003717152433        1.58446960983400       -0.07652970018380
N            2.48514327280014        0.21215228669410       -0.00198718970223
C            3.72890611306097       -0.55869662125365       -0.02938578060671
N            1.38209241001799       -2.09637382210210       -0.04313754309135
C            0.45791535638346       -1.21281359746800        0.01136460311033
C            1.00469143713022        0.10075200454726        0.08020452669523
C            0.10438233768492        1.25885196540150        0.07905809552371
O            0.47757983124395        2.42563040246523        0.11632828387268
N           -1.27254866576398        0.99243850054596        0.05596268483542
C           -2.20630657555721        2.11371336770787        0.09355762210749
C           -1.83694674537943       -0.25554776679052       -0.01127704992307
O           -3.03847932941297       -0.40091082831197       -0.05838886081346
N           -0.95653146895469       -1.33316637063408       -0.03092213140422
C           -1.65252989973891       -2.61757762038896       -0.10278025527252
H            2.76271873836479        2.13725170499758        0.84738851609140
H            5.10542984669579       -0.09401548162846        0.54901838662303
H            3.07933184337776        1.96931009125990       -1.00392299979322
H            4.22394168431401       -1.48766644566956       -0.13266902129891
H           -1.60912937641942        3.01627973371455        0.16984805182973
H           -2.80827271198775        2.16051450855924       -0.81752752861143
H           -2.88016930806527        1.99669590995936        0.94181269431986
H           -1.44128967857669       -3.24201596912509        0.76547839639216
H           -1.41622110650544       -3.15216380150195       -1.02345724634997
H           -2.71961963450290       -2.36818073285599       -0.10398222641887
H            1.11009050076223       -3.05573889356327       -0.09591627943113
