25
 energy: 130.886775966423 xtb: 6.6.1 (8d0f1dd)
C            2.01085778437887        1.90263576864052        0.11498827487040
N            2.06682988704996        0.49765595301421        0.06630573742303
C            5.23676252518356       -0.77344357032007       -0.19238078937926
N            1.07128436426873       -2.26940698502551       -0.02073228050081
C            0.29807848079475       -1.27450174473771       -0.01155283917427
C            0.82344805228714        0.07404285516904        0.03829147537523
C           -0.06125317519557        1.16979951931307        0.06928406329527
O            0.61477295766621        2.31655484189837        0.11738105925074
N           -1.39054991798148        1.05336151330495        0.05068077879120
C           -2.28631206231635        2.19319222907307        0.09159698972885
C           -1.96490934880251       -0.22789486243715       -0.01549150700793
O           -3.17156559697571       -0.32984318455836       -0.04390942992634
N           -1.11443102214412       -1.30808462278011       -0.04355815674867
C           -1.73840854312507       -2.62295079651602       -0.10617688031083
H            2.49161339213563        2.29346541402150        1.02170330265780
H            6.31770715341889       -0.65360072270293       -0.30679575076276
H            2.50948209955634        2.35437728223688       -0.75364121567056
H            4.78157037387464       -1.76552061772778       -0.13693198636835
H           -1.70294416222005        3.10843281708530        0.15324072998183
H           -2.90574004977741        2.19785675908510       -0.80546148058708
H           -2.94366274960238        2.10303126095605        0.95663245496606
H           -1.46771696480871       -3.21173972266147        0.77233990502951
H           -1.42573006446224       -3.14656480321376       -1.01152825448355
H           -2.81733831610606       -2.48931819676133       -0.12637088080413
H            0.68036920787471       -3.20250759561319       -0.05087940745029
