  25
        -42.07744318
 C          3.4154779060        0.2762474720        0.1656250102
 N          2.2856467585       -0.6016912863        0.0624951145
 C          2.2925974108       -1.9355335652       -0.0319256865
 N          1.0179273057       -2.4048186780       -0.0825018362
 C          0.1767166779       -1.3384461784       -0.0156390249
 C          0.9740713298       -0.1792462781        0.0749892043
 C          0.4134453766        1.0789737241        0.1185258791
 O          0.2068150945        4.4731859394       -0.4085737328
 N         -0.9422158596        1.1404215435        0.0971512499
 C         -1.5510823644        2.3238752326        0.0872633781
 C         -1.8008082742       -0.0311146750        0.0787342932
 O         -2.9952507191        0.0825613759        0.1332781630
 N         -1.1732163760       -1.2689968152       -0.0210550062
 C         -1.9939553407       -2.4619541757       -0.1226055871
 H          3.7109841585        0.3976523074        1.2102121351
 H          4.2578097093       -0.1223533782       -0.3965725880
 H          3.1316561792        1.2529867551       -0.2249030167
 H          3.1673280011       -2.5524338051       -0.0621097524
 H         -0.0602097243        5.3585644829       -0.6637467589
 H         -2.6272019507        2.3557284513        0.0876039083
 H         -0.9174550163        3.2178968430        0.0215532505
 H         -1.7868311852       -3.1381730262        0.7072813674
 H         -1.8082545847       -2.9665239483       -1.0718083523
 H         -3.0385575929       -2.1566487311       -0.0803681658
 H          0.7657814311       -3.3792539688       -0.1665491427
