  25
        -42.10958423
 C          3.1468008794        1.0878259244        0.0012228230
 N          2.2805504559        0.0826714181       -0.0007865141
 C          2.5436105838       -1.2456744473       -0.0100971143
 N          1.3777622642       -1.9486774415       -0.0083845889
 C          0.3461494092       -1.0628640887        0.0011012105
 C          0.8894813645        0.2104619522        0.0063070963
 C          0.0679682369        1.3983352197        0.0070530708
 O          0.4680990117        2.5374789658        0.0165092727
 N         -1.2899233758        1.0700489168       -0.0080886620
 C         -2.2443460371        2.1692637339       -0.0132856394
 C         -1.8579026384       -0.1895499817       -0.0014095155
 O         -3.0443843232       -0.3607869039       -0.0002143724
 N         -0.9757973441       -1.2942628347        0.0006942794
 C         -1.5289508985       -2.6329277064        0.0175505604
 H          4.2246078122        0.8965785828       -0.0149915190
 H          5.9834003276        0.8761707135       -0.1104915893
 H          2.7625881706        2.0929540370        0.0058637119
 H          3.5205307766       -1.6840015258       -0.0174818454
 H         -1.6869594092        3.1024974589       -0.0048153307
 H         -2.8717970187        2.1102170609       -0.9028588880
 H         -2.8889381655        2.1039010717        0.8632991225
 H         -1.2284114159       -3.1591394067        0.9238431056
 H         -1.2106543562       -3.1899310363       -0.8637983004
 H         -2.6145236041       -2.5388084787        0.0052606678
 H          1.3130948202       -2.9561003548       -0.0128857364
