25
 energy: -42.006212819911 gnorm: 0.007019033355 xtb: 6.6.1 (8d0f1dd)
C            3.48069906045251        0.95638281512060        0.52942765084597
N            2.25514663587364        0.30593287653444        0.12487292727514
C            2.18434496474969       -0.54357635200894       -0.88076125923725
N            1.11464165741176       -1.28825187975720       -1.14191767761587
C            0.26294909949189       -1.96462071490934       -0.22188355198952
C            1.12168492971820        0.57168730686480        0.90046650184319
C           -0.05257920181480        1.00011668623752        0.34088078500805
O            0.57700813356984        2.06744941832896        0.72849981115944
N           -1.26167599334565        0.79206855342630       -0.13437010605182
C           -2.15289087993344        1.92026122221503       -0.39687929656233
C           -1.76098709002179       -0.48272546349937       -0.38691517650487
O           -2.82262363970481       -0.67491274164801       -0.89289056661605
N           -0.93110399805802       -1.58295363285770        0.07464862001818
C           -1.70573076987560       -2.49405478075312        0.91807692901555
H            3.78944508413655        0.57864817637756        1.50566678322749
H            4.26574192628706        0.76726923260168       -0.19828622089499
H            3.30596401698210        2.02951173253319        0.61563908584310
H            3.05978897252375       -0.65136152575952       -1.50865735761670
H           -1.62600145553160        2.84337334198001       -0.16652131662323
H           -2.45487138019675        1.90528257526152       -1.44384016281299
H           -3.04330650242429        1.83344576637880        0.22514593090863
H           -1.97754296749591       -1.99321516436975        1.84740436265288
H           -1.09568842201301       -3.36734593071857        1.13365459771547
H           -2.61301780730605       -2.79012324981257        0.39242429005278
H            1.24103714062352       -1.92004972616777       -1.93271396514199
