72
 energy: -99.434059456680 gnorm: 0.007801643779 xtb: 6.6.1 (8d0f1dd)
N           -3.60164188864921        3.21544422092864        2.92976841383068
C           -1.39347514681296        1.68123778717995        0.64753204221938
C           -2.76541957727892        1.57046553582872       -0.03831315505529
C           -3.41713654600015        0.20027142934926        0.10705653236066
C           -4.42545022068741       -0.17515623710977       -0.78514646090133
C           -5.07146734047580       -1.39622564246511       -0.69407933278028
O           -6.04702521364148       -1.82720759808411       -1.52267594058537
C           -6.46717538665971       -1.00404421915862       -2.58366113546282
C           -4.71819968366944       -2.29954486094562        0.34188715945258
O           -5.38451197855875       -3.47179234099142        0.35141750028651
C           -5.08296455550087       -4.41746324589907        1.35053000918054
C           -3.74865648028984       -1.91029127990813        1.24945733004618
C           -3.11528067283578       -0.67946875631711        1.13595870191951
C           -2.36857642572441        1.84017713642433       -1.50154842087274
C           -1.12839775730652        0.97260153343814       -1.68309359758325
C           -0.33112508776826        1.20236992343847       -0.38464278465526
N            0.43982382687090        0.09050935160082        0.12176789727726
C            1.86111927673390        0.26353214591020        0.23025518544323
C            2.64066617914070        0.17059910844842       -1.10404693335201
C            4.10982378246331        0.25648987115489       -0.82762576960381
C            4.81832275110186        1.43128405076711       -1.02295150282672
C            6.16727146300601        1.50836056502676       -0.71077204626913
C            6.83462694272484        0.41305334340112       -0.18184914522842
O            8.13555201610336        0.37767539309026        0.16956092957293
C            8.92304190136285        1.53297845381103        0.00140113997020
C            6.11655423590965       -0.79690370844107        0.02525116892877
O            6.83683159346486       -1.81271062591863        0.54613089940447
C            6.19974621111904       -3.04058824882929        0.80458114497135
C            4.77287466765900       -0.85217856609647       -0.30352411753546
C           -0.00257902062541       -1.25659712352231       -0.12352692371938
C           -3.80181768268881        2.61414481670415        0.52727494368282
C           -3.97431801467472        2.36171478761870        1.97474260466267
C           -3.49034466254669        4.07683861268342        0.21378733613851
H           -4.72142424468568        0.50330602663500       -1.56796509732811
H           -6.89162049691938       -0.06260060703602       -2.21998036439902
H           -7.24040463978478       -1.56844238625784       -3.10116243077642
H           -5.64822297032917       -0.79342076640662       -3.27888686796518
H           -5.30099350535011       -4.02894259019868        2.35022808134111
H           -5.72610859429318       -5.27161717274555        1.14850739335837
H           -4.03589959086287       -4.73250633079421        1.30156961972620
H           -3.47002547218578       -2.56113129008687        2.06225292501950
H           -2.38271679902957       -0.43454778296988        1.88723040059187
H           -3.14409150110152        1.60680451251271       -2.22465768602594
H           -2.09004731743958        2.88583087164437       -1.62228816102863
H           -1.42812250285313       -0.06869125386592       -1.77832841338133
H           -0.55490218769588        1.24827679980868       -2.56659944725886
H           -1.30973025369186        1.11115311414952        1.56674434965784
H            0.37340094330736        2.02161087654706       -0.55079183676388
H            2.24150037585310       -0.50666150142430        0.90648432717724
H            2.06208808672310        1.23601058437494        0.68744637630631
H            2.32764997491014        0.97982564924109       -1.76473861283945
H            2.40460971150434       -0.78034118337148       -1.58394949754106
H            4.32235263843441        2.29924804390950       -1.43009170932905
H            6.69276099434072        2.43363494822611       -0.88232438327266
H            8.53901209917210        2.36947698774487        0.59343164062732
H            8.98327569059819        1.82735124661327       -1.05076484842151
H            9.91547695381488        1.26409768721666        0.35819392043712
H            6.96716189958767       -3.68502318211836        1.22897639365560
H            5.38467546415323       -2.92489725847721        1.52646913299225
H            5.81339006845602       -3.49436948581299       -0.11344976957594
H            4.21996156086095       -1.76757574280926       -0.16205135855290
H            0.22580254621027       -1.61065846204619       -1.13758658397381
H           -1.07638591487428       -1.32759366587247        0.03665991857150
H            0.49542951429027       -1.91934246619872        0.58463689946238
H           -4.75343660718235        2.36459507321819        0.04071590515738
H           -3.73338953742898        3.00923820879477        3.90588268280486
H           -4.37960247687653        1.41501854896732        2.29447797714812
H           -3.21436853214681        4.11856716426616        2.68373304411465
H           -2.48859808321675        4.36544467095621        0.52302128805918
H           -3.58111604313600        4.26129095462770       -0.85194224320510
H           -4.21310617119919        4.71942179561978        0.71302521326453
H           -1.19841098822026        2.72272327279390        0.89823299186467
