25
 energy: -42.542760659321 xtb: 6.6.1 (8d0f1dd)
C            3.24431345452317        1.19356241044827        0.08526418482039
N            2.30637160999953        0.09564534251942        0.03297450628040
C            2.54797629732092       -1.24540651210927        0.03789125217801
N            1.41742128489906       -1.95279121408172        0.01521096625756
C            0.41768314854850       -1.04959081225156       -0.01066119827277
C            0.93426058023648        0.24418807898646        0.00998902569573
C            0.10500622360070        1.41557044600789       -0.00653882460085
O            0.47586669771127        2.57852756905018       -0.00577880994899
N           -1.26100994171655        1.07707540069826       -0.03271126821243
C           -2.23164218659560        2.16199494146779       -0.04706176939790
C           -1.80747015534853       -0.19255738623277       -0.05052488585656
O           -3.00525089069648       -0.36991975256131       -0.07696767981852
N           -0.92424561478348       -1.26770754486501       -0.03941295659097
C           -1.43544688974476       -2.62246915650858       -0.06278740794083
H            3.72747075098678        1.24281622956105        1.06340551145941
H            4.00999385924993        1.06686563969904       -0.67933524387372
H            2.70710661160952        2.12963277018000       -0.07853800725230
H            3.55293505542428       -1.62685556435508        0.05026502282567
H           -1.68469389472588        3.10144197715089       -0.02257368714571
H           -2.84128311853986        2.10381018939401       -0.94844281009455
H           -2.88707670534017        2.08339506985034        0.81987964374709
H           -1.10107895521312       -3.16200776381438        0.82484924656650
H           -1.07580208358624       -3.14064547019207       -0.95392861212999
H           -2.51932017309212       -2.56309787758467       -0.07749160137388
H            1.10529869086631       -3.57970083566428       -0.02448512831705
