25
 energy: 0.000000000000 xtb: 6.6.1 (8d0f1dd)
C            3.23720163006194        1.16630919979326        0.08434469647475
N            2.29877817382611        0.07527477071623        0.03981603040599
C            2.58028210190900       -1.21425402444508        0.03006176031096
N            1.43813958087363       -1.93419271955128        0.00098261760884
C            0.39035688448383       -1.05887472636071       -0.00790371836672
C            0.93510056364412        0.21347819449412        0.01709077491437
C            0.09450143893243        1.40504303904423       -0.00410947031874
O            0.49712751527797        2.54126714362870       -0.00342325688240
N           -1.25076640035757        1.06271879480407       -0.03085478223738
C           -2.21907211982101        2.15522099834493       -0.05001256985998
C           -1.81739487048744       -0.20012725993278       -0.04692818574614
O           -2.99983886758376       -0.37846417018721       -0.07008878229737
N           -0.92618586207120       -1.30210215599479       -0.03682761578324
C           -1.46982264913417       -2.64643102187190       -0.06029820460571
H            3.71247264356769        1.21471455160235        1.06488849150277
H            4.00791497605742        1.03430808813993       -0.67357694370751
H            2.69910007168542        2.09770118228144       -0.09130154882931
H            3.56654120610678       -1.63682992603973        0.04233140067262
H           -1.67107961066214        3.09322851271934       -0.02552706933167
H           -2.82428953597071        2.09428624779827       -0.95318082946668
H           -2.87644029173232        2.07745725625962        0.81450067533302
H           -1.17061996399332       -3.19584890659852        0.83242232437030
H           -1.14560257411436       -3.17511610292205       -0.95688275822323
H           -2.55549792440841       -2.55659984320617       -0.07459039797972
H            1.38130855184625       -2.94313852034425       -0.01389874181052
25
 energy: -0.882979595996 xtb: 6.6.1 (8d0f1dd)
C            3.23929209663853        1.18455527752026        0.08600077871589
N            2.30266885580275        0.08750838334283        0.03809471154568
C            2.58043617814160       -1.25472944270649        0.03032245071158
N            1.40794562618972       -2.00177435015534       -0.00017305338162
C            0.40183014955280       -1.06650801443947       -0.00833979570873
C            0.93000444608378        0.22179334913193        0.01554565014422
C            0.10172249428249        1.40768119342790       -0.00417554722611
O            0.49369384690071        2.57602178542375       -0.00207935902646
N           -1.26042021370377        1.06626621776323       -0.03120515561731
C           -2.22977589974364        2.15803054008672       -0.05030353695287
C           -1.81599283608986       -0.18792624801136       -0.04783539756323
O           -3.01145127366136       -0.37362689724440       -0.07148367387933
N           -0.92668792683335       -1.28875933156764       -0.03708324969600
C           -1.44507006727174       -2.63249152725897       -0.05939180562396
H            3.72534275031456        1.24243103809613        1.06442146115724
H            4.01055799864464        1.06433087491687       -0.67665570450657
H            2.70587286717824        2.12116619837659       -0.08540736051793
H            3.56641540090501       -1.65387317542449        0.04422882722152
H           -1.68306165704296        3.09832953037224       -0.02600603106735
H           -2.83732277450215        2.09953562558361       -0.95328868550086
H           -2.88945519156115        2.08266614796957        0.81385726781602
H           -1.12196882784335       -3.17172004184437        0.83307286570390
H           -1.09697293668352       -3.15213174228811       -0.95414061818674
H           -2.53010432825202       -2.55827168729916       -0.07392236533445
H            1.29471589049024       -3.07947510159979       -0.01701877707925
25
 energy: 9.793850508813 xtb: 6.6.1 (8d0f1dd)
C            3.24077887821181        1.19317320948272        0.08690410753694
N            2.30526406517610        0.08972906786680        0.03561005742072
C            2.57228576691554       -1.29069553851299        0.03150845994936
N            1.37443975223286       -2.06354307464193       -0.00082002076236
C            0.41234954560208       -1.07149897681710       -0.00888787820469
C            0.92613470558428        0.22447818327596        0.01376479095910
C            0.10806258745328        1.40287894979339       -0.00389413091239
O            0.48049722358510        2.58526911055570        0.00025045534547
N           -1.27147742215035        1.07559193670440       -0.03173526469530
C           -2.24049982190124        2.16687594861047       -0.05075356801854
C           -1.81149678025339       -0.17177422818333       -0.04883193248429
O           -3.01063704621008       -0.36943940738576       -0.07343983601552
N           -0.92608913309811       -1.26595089368008       -0.03738150578782
C           -1.41237155877313       -2.61455268645900       -0.05823955793681
H            3.73687877375650        1.26476453961959        1.06209764150970
H            4.01237514918743        1.09480043167868       -0.68130781591148
H            2.70688669262195        2.13381544221088       -0.07783990835605
H            3.56440502633605       -1.65795386786736        0.04727490130848
H           -1.69764372739737        3.11017646912264       -0.02662852446186
H           -2.85070732661576        2.10734859107439       -0.95283010983440
H           -2.90262715939074        2.09044422082033        0.81239217768062
H           -1.06357918752270       -3.14168082743578        0.83419281451867
H           -1.03854342772216       -3.12376270973656       -0.95096048027692
H           -2.49748461037663       -2.56920591458820       -0.07320760724652
H            1.19501370268488       -3.21025937333584       -0.02020336917681
25
 energy: 18.466067737182 xtb: 6.6.1 (8d0f1dd)
C            3.24105543857505        1.19616752921980        0.08702826659948
N            2.30700781305137        0.09013298897857        0.03423217923513
C            2.56704992791018       -1.30298420574027        0.03279672377614
N            1.35974552397413       -2.08835692516505       -0.00078033226353
C            0.41626913428792       -1.07547100645175       -0.00927168227842
C            0.92532509226586        0.22281766136429        0.01292154638611
C            0.11082499257700        1.40133325080422       -0.00344645755842
O            0.47330614645959        2.58443297872491        0.00182643060607
N           -1.27675012116979        1.08382185274452       -0.03216837685647
C           -2.24484004014522        2.17444553768010       -0.05110801057910
C           -1.81086771554462       -0.16453118448459       -0.04954459875025
O           -3.00956427533354       -0.36960442142483       -0.07486173827321
N           -0.92617100631992       -1.25337129630218       -0.03763317177148
C           -1.39652423626000       -2.60651239486853       -0.05754039125429
H            3.74129500614411        1.27086144769379        1.06016698507631
H            4.01104605889442        1.10837724831320       -0.68447847100988
H            2.70432677145271        2.13743909464325       -0.07326344615494
H            3.56620133158665       -1.65140835339953        0.04917722452405
H           -1.70475819234437        3.11905473874332       -0.02703797683019
H           -2.85580763086752        2.11310609950859       -0.95280686846802
H           -2.90754570140267        2.09623571378652        0.81171818403901
H           -1.03575750393983       -3.12476047670500        0.83576192821521
H           -1.01053234350128       -3.10801951972242       -0.94986605056034
H           -2.48141209679575       -2.58030455214868       -0.07283305729601
H            1.14929229438173       -3.28387320362021       -0.02195494240567
25
 energy: 23.996722855894 xtb: 6.6.1 (8d0f1dd)
C            3.24187173745031        1.19916172638423        0.08714378918620
N            2.30874490038759        0.09290371811860        0.03362320241954
C            2.56652016778898       -1.30209453572930        0.03412276869624
N            1.35748635437957       -2.09298372824228       -0.00043972783653
C            0.41813954097262       -1.07813375022414       -0.00953240943158
C            0.92594316392506        0.22134364572006        0.01240750209136
C            0.11197017602156        1.40185081464976       -0.00343174387892
O            0.47032561341859        2.58305027949504        0.00244734799263
N           -1.27794467175497        1.08765221591810       -0.03247647315761
C           -2.24582965594133        2.17704993723105       -0.05123881779144
C           -1.81118675341690       -0.16318275289976       -0.04978681601056
O           -3.00894908726289       -0.37093827576583       -0.07525635476314
N           -0.92605983180442       -1.24858225368868       -0.03777449996751
C           -1.39390969243145       -2.60376524268452       -0.05731313386053
H            3.74304075029536        1.27267198388740        1.05950322476448
H            4.01052472658537        1.11311089305421       -0.68537997413549
H            2.70428063218097        2.14036814119135       -0.07178627055361
H            3.56950026760836       -1.64114006712474        0.04965022382855
H           -1.70707066624021        3.12205250584891       -0.02722908497625
H           -2.85686475840661        2.11483556179079       -0.95289103975810
H           -2.90837041813794        2.09802368086616        0.81173089605486
H           -1.03155680113527       -3.11875266397771        0.83641505458344
H           -1.00622411534815       -3.10241177510683       -0.94973398354502
H           -2.47799215247004       -2.58311914147905       -0.07270014672602
H            1.13582524127202       -3.32994231506080       -0.02303963707771
25
 energy: 32.327297362328 xtb: 6.6.1 (8d0f1dd)
C            3.24361009564777        1.20365154208931        0.08723858105833
N            2.31072491901672        0.09888208463159        0.03307605210332
C            2.56761586320949       -1.29392929992643        0.03695621206393
N            1.35974693377885       -2.08670750354171        0.00064946981320
C            0.41945005675602       -1.07920694178806       -0.00982909476948
C            0.92688972138515        0.22138939837135        0.01191416893908
C            0.11236469198650        1.40487112119107       -0.00354362508814
O            0.46791840130774        2.58314784773425        0.00288512512341
N           -1.27785636013753        1.09116665419908       -0.03281307813524
C           -2.24640935765305        2.17825093652278       -0.05131580487255
C           -1.81203837176933       -0.16322274281686       -0.04981666555159
O           -3.00851310029883       -0.37151435106618       -0.07516063319840
N           -0.92572378568074       -1.24426380357062       -0.03792351401517
C           -1.39455429432131       -2.60196039530511       -0.05726335519160
H            3.74435113005775        1.27446762341891        1.05943098348320
H            4.01117537479498        1.11563103250237       -0.68543378130708
H            2.70672159036408        2.14488608696483       -0.07162897676801
H            3.57309146812284       -1.62677606443042        0.04866186219987
H           -1.70940406854707        3.12393312817972       -0.02732978821888
H           -2.85742530583216        2.11534325173209       -0.95296655348269
H           -2.90866663308726        2.09852392506184        0.81188386183113
H           -1.03259215389904       -3.11515064569657        0.83656520019352
H           -1.00716792022730       -3.09898876226359       -0.94971709366712
H           -2.47797462280692       -2.58302462662195       -0.07270206670801
H            1.12688039576883       -3.40037089339967       -0.02478358968774
25
 energy: 39.054266704428 xtb: 6.6.1 (8d0f1dd)
C            3.24589638349060        1.21107433382325        0.08677295617823
N            2.31288075906482        0.10807720253221        0.03287048975153
C            2.56756516147273       -1.28382823002874        0.04319353646810
N            1.36147187071519       -2.08006905757379        0.00464587262374
C            0.42294244549649       -1.07864201875745       -0.00941477894579
C            0.92767858216336        0.22478885393482        0.01211533530106
C            0.11312326951010        1.40980759448461       -0.00314892888139
O            0.46340738798138        2.58601731747220        0.00294361494067
N           -1.27823737401447        1.09645196427805       -0.03303744175676
C           -2.24800156250321        2.18031709306805       -0.05144293667278
C           -1.81138288093585       -0.16203459031019       -0.04985094190358
O           -3.00662130797785       -0.37166010014233       -0.07524049524569
N           -0.92408195587650       -1.23678994641150       -0.03818865767722
C           -1.39225206265931       -2.59786743073759       -0.05721755106445
H            3.74616343364124        1.27927713247969        1.05889361573711
H            4.01248941011724        1.12099761394192       -0.68604784345331
H            2.71016370915296        2.15285383205162       -0.07193956250227
H            3.57646805327463       -1.60784774501111        0.04668282234523
H           -1.71360928317513        3.12723310236315       -0.02743398036738
H           -2.85897882899397        2.11604521659104       -0.95312758508756
H           -2.91008847638221        2.09920242838468        0.81190968187683
H           -1.02910759258450       -3.10883061797093        0.83636367986233
H           -1.00319987823869       -3.09312715752778       -0.94907285689233
H           -2.47513805744745       -2.58262211756126       -0.07290121769950
H            1.10266346264460       -3.51979607120064       -0.03129293078756
25
 energy: 33.535979383554 xtb: 6.6.1 (8d0f1dd)
C            3.25194358385642        1.22814448864491        0.08634082791921
N            2.31792654321092        0.13169219510091        0.03203564597331
C            2.56060122391927       -1.25082234700333        0.05211700640491
N            1.36853994940317       -2.05019360183189        0.01363764928604
C            0.43434913896647       -1.07099931478326       -0.00928493210240
C            0.93157096436049        0.23856038756029        0.01160668683500
C            0.11570398779115        1.42531633425125       -0.00243964007866
O            0.45007866218432        2.59167501959335        0.00303301264608
N           -1.27728796054319        1.11157157236803       -0.03354177457565
C           -2.25074894625005        2.18536393313977       -0.05171643443852
C           -1.80750029475581       -0.16146007815579       -0.04983427561992
O           -2.99896078781662       -0.37349650940432       -0.07537918491648
N           -0.91761563215354       -1.21681682819838       -0.03855847213008
C           -1.38535103520391       -2.58860896258264       -0.05678794241786
H            3.74924084842469        1.28665140424485        1.05810360362802
H            4.01402617015903        1.13145815558827       -0.68726083756620
H            2.71595409413229        2.16922872635354       -0.07144144211306
H            3.57756351873191       -1.56170452693763        0.04433209868812
H           -1.72180213701429        3.13411601833433       -0.02773378792825
H           -2.86139899537289        2.11681646995316       -0.95347521530116
H           -2.91225682866285        2.10004990445944        0.81198158070142
H           -1.01843727431474       -3.09548439135059        0.83400917628275
H           -0.99213943951352       -3.08055952932178       -0.94551079601089
H           -2.46669171220240       -2.58509230227099       -0.07278963496987
H            1.03490702659987       -3.82637761557949       -0.04440902204856
25
 energy: 28.293072585749 xtb: 6.6.1 (8d0f1dd)
C            3.25439860304725        1.24165812119933        0.08721273599219
N            2.31567076054128        0.14910171384521        0.03369241612358
C            2.54459786933210       -1.21512287844421        0.05059558386495
N            1.38562582859693       -2.01257728223583        0.01591902567637
C            0.44580288274994       -1.05603087454575       -0.00819019807041
C            0.93524976827796        0.25782278175991        0.01064993682888
C            0.11382355249397        1.44613058988987       -0.00363736166794
O            0.43893642047586        2.60291480729256        0.00400208057540
N           -1.27223129754747        1.12544757654509       -0.03420833752267
C           -2.25243142309675        2.18958030297534       -0.05200275119773
C           -1.80046083275994       -0.16304563776242       -0.04964779995191
O           -2.98958210019368       -0.37136619387553       -0.07510843810983
N           -0.90728597116076       -1.20202847785251       -0.03735727552391
C           -1.37798038891726       -2.58102856608363       -0.05608004931921
H            3.75067491920250        1.29310213278686        1.05779822007254
H            4.01359851573208        1.13862361100014       -0.68683848298781
H            2.72256111036838        2.18478020103739       -0.07070913719941
H            3.56774620769523       -1.52314961305538        0.04494746711854
H           -1.73051628243846        3.14162115833826       -0.02823702535108
H           -2.86303530954394        2.11630849470374       -0.95347921165699
H           -2.91359139595532        2.09963345851866        0.81161432269365
H           -1.00640276028362       -3.08647364027298        0.83073272012682
H           -0.98031665447231       -3.07153836812314       -0.94080473487807
H           -2.45885186192172       -2.58443885390175       -0.07234205676504
H            0.97621450771392       -4.13089596156719       -0.05148775272358
25
 energy: 20.525350962182 xtb: 6.6.1 (8d0f1dd)
C            3.25427256955563        1.24878918474912        0.08743272370983
N            2.30592187111535        0.15994114679022        0.03903607152772
C            2.52960829377252       -1.16482154543507        0.03775295292052
N            1.43329486175761       -1.91654031325505        0.01197182480589
C            0.45066376788379       -1.00748512910703       -0.00656217861038
C            0.93763451739966        0.29904521155652        0.01113125310296
C            0.10037560826583        1.47241870439790       -0.00501185497348
O            0.43876011460828        2.63048223230741        0.00451095632284
N           -1.26303048585873        1.12552164610403       -0.03381051580374
C           -2.25201722106229        2.18656738067703       -0.05180394100827
C           -1.79351953354328       -0.17163288033052       -0.04927920107830
O           -2.98573214762955       -0.36132646329906       -0.07426269345523
N           -0.89513542362074       -1.20547562752493       -0.03536462864607
C           -1.37234624851747       -2.58372576753811       -0.05599162208379
H            3.74778634563408        1.29501145728924        1.05909956608201
H            4.01416212862054        1.13409622514977       -0.68528548124878
H            2.72661866091359        2.19230584353986       -0.07310704311667
H            3.54254434480317       -1.52517135039218        0.05071178627137
H           -1.73139084471059        3.14029573940802       -0.02802554413851
H           -2.86214076464061        2.11293685348830       -0.95312069153680
H           -2.91283824365668        2.09590928915109        0.81138756033588
H           -1.00420622294960       -3.09676121624544        0.82909805548982
H           -0.97905633177833       -3.08043113350276       -0.93989527357580
H           -2.45607108830112       -2.57557027713585       -0.07195775332164
H            0.93805613987514       -4.41535060867050       -0.05162043182408
25
 energy: 19.906472858008 xtb: 6.6.1 (8d0f1dd)
C            3.26038254517006        1.27244655720317        0.08625125013401
N            2.30755976952640        0.18918733812538        0.04042736303853
C            2.53771145777606       -1.12817466438720        0.03611924757245
N            1.46376477299258       -1.86407244155398        0.00855837309452
C            0.44956194932743       -0.97327261633839       -0.00602130448134
C            0.93790588588293        0.32991674876256        0.01346430901097
C            0.08839854960668        1.48702469584736       -0.00284432344742
O            0.43577330480552        2.65125678614545        0.00363114660372
N           -1.26004790362794        1.12325624458220       -0.03239493246991
C           -2.25317436814606        2.18447573498299       -0.05146516839019
C           -1.78802363065264       -0.17408326526088       -0.04851281382171
O           -2.98372523687293       -0.35267860578214       -0.07381156012677
N           -0.89162169947899       -1.21132691468785       -0.03520819547678
C           -1.37076266656587       -2.58409234861311       -0.05681660061408
H            3.74978623718629        1.30875761786149        1.06134796722683
H            4.02084487703948        1.13981498427126       -0.68382802700575
H            2.73683047991808        2.21510178499607       -0.07812322643489
H            3.54030963774891       -1.52122871492711        0.05293011394659
H           -1.73051178301454        3.13808380915601       -0.02731308577845
H           -2.86148378295225        2.11018350939114       -0.95342099556113
H           -2.91266236890321        2.09277785034899        0.81198905235029
H           -1.01218710039214       -3.10565457590303        0.82908677982765
H           -0.98727071771884       -3.08787634787756       -0.94275776403152
H           -2.45628700102186       -2.56152861950885       -0.07226095634834
H            0.89114346030302       -4.68926594466200       -0.05199275266998
25
 energy: 19.727035529040 xtb: 6.6.1 (8d0f1dd)
C            3.26440873727592        1.28743306492755        0.08769178303373
N            2.30964106711942        0.21145848116483        0.04069348101116
C            2.54904744558966       -1.11174269036771        0.03494224987701
N            1.46588004741600       -1.85245211865984        0.00695617231501
C            0.44761838946454       -0.96026512117914       -0.00594548006347
C            0.93770819147332        0.34128661717080        0.01499213836436
C            0.08410898989771        1.49246348169096       -0.00325764842876
O            0.43516132943340        2.65875724287804        0.00150653723673
N           -1.26059223011442        1.12356021656110       -0.03229316119312
C           -2.25510191181978        2.18497054697200       -0.05147654211080
C           -1.78472081787698       -0.17079124883709       -0.04836935369579
O           -2.98172335737102       -0.35002496424087       -0.07315126026160
N           -0.88948122011240       -1.21380705788148       -0.03553858300152
C           -1.36785570584934       -2.58253849085711       -0.05664275143026
H            3.75240831916258        1.31688603739049        1.06415453404210
H            4.02382685895357        1.14423601502074       -0.68175654032318
H            2.74287599241486        2.22904296705116       -0.07808740582699
H            3.54426707075132       -1.51500685316100        0.04861605862738
H           -1.73028844314093        3.13755125354451       -0.02761560225572
H           -2.86225990922576        2.10973757702008       -0.95365367391570
H           -2.91354112652234        2.09264289725380        0.81224025447186
H           -1.01338423766199       -3.10866822331789        0.82933323932986
H           -0.98873215570722       -3.09096192386451       -0.94287392736349
H           -2.45510475742195       -2.55687961107789       -0.07192935754506
H            0.85804810180801       -4.82785949302952       -0.05150126474645
25
 energy: 19.684380735969 xtb: 6.6.1 (8d0f1dd)
C            3.26428454486351        1.28662098628419        0.08705422843865
N            2.30765696261338        0.21417282344990        0.04080424062591
C            2.55043841603839       -1.10905843774971        0.03499959442776
N            1.46464796895001       -1.84773729060214        0.00629191180965
C            0.44692152196220       -0.95653409843303       -0.00567121978330
C            0.93739312367256        0.34332101870447        0.01621864114351
C            0.08294939757051        1.49413289234063       -0.00255901746719
O            0.43551259471491        2.65981917689203        0.00187356504623
N           -1.26116974702779        1.12353803178004       -0.03186079191507
C           -2.25609718314928        2.18516747133577       -0.05138640502630
C           -1.78396206381927       -0.16889933028371       -0.04834954206911
O           -2.98076666911504       -0.35117804660688       -0.07349470751749
N           -0.88760749240792       -1.21508549480393       -0.03575226668534
C           -1.36597096474679       -2.58182080826823       -0.05692335114575
H            3.75250139005612        1.31600256090768        1.06321490355709
H            4.02337639555888        1.14233243372025       -0.68234772145587
H            2.74378865750695        2.22849807793242       -0.07886671595786
H            3.54159054943385       -1.51874934473243        0.05010138211113
H           -1.73066873968464        3.13735427509955       -0.02733076098331
H           -2.86270651524661        2.10971694771344       -0.95371903012697
H           -2.91441598236135        2.09244441354970        0.81215317299853
H           -1.01174145086412       -3.10884304484219        0.82885315426336
H           -0.98695772206440       -3.09103875465350       -0.94300416401956
H           -2.45377869819604       -2.55642744209016       -0.07225104705114
H            0.85699637367817       -4.83872041447217       -0.05101415707028
25
 energy: 19.670747321836 xtb: 6.6.1 (8d0f1dd)
C            3.26380613329876        1.28617929389071        0.08757968614515
N            2.30612501426638        0.21529313399905        0.04081468087371
C            2.55174843546362       -1.10812335257648        0.03417882348129
N            1.46322248172068       -1.84639184070641        0.00557657034978
C            0.44645329206360       -0.95576319545721       -0.00574994300254
C            0.93737129087792        0.34344912961612        0.01653453910484
C            0.08280458998498        1.49438520431527       -0.00310516702227
O            0.43550533157224        2.65979345739997        0.00122451932228
N           -1.26149509812617        1.12268892261559       -0.03202872510169
C           -2.25606880018570        2.18511790073908       -0.05147269821107
C           -1.78367916823828       -0.16738410765850       -0.04842186486177
O           -2.98020000155512       -0.35268719145800       -0.07328306180226
N           -0.88672800632803       -1.21663462941455       -0.03598226413225
C           -1.36644499961712       -2.58140836152629       -0.05668877453516
H            3.75227410341957        1.31618517872692        1.06360799230431
H            4.02325680859596        1.14289729899308       -0.68155476408309
H            2.74454268180156        2.22904984964836       -0.07806059918562
H            3.54050428514779       -1.52124662210614        0.04897519963822
H           -1.72997731926726        3.13693255010012       -0.02759616402512
H           -2.86266813285112        2.10976267088644       -0.95369573724765
H           -2.91401901457601        2.09260731236524        0.81222615910676
H           -1.01305925473045       -3.10919985863026        0.82908423186846
H           -0.98853436442634       -3.09171605203064       -0.94269866478885
H           -2.45432643270779       -2.55534405979339       -0.07187975857391
H            0.86180081233250       -4.83941402976607       -0.05055031947430
25
 energy: 19.667193661907 xtb: 6.6.1 (8d0f1dd)
C            3.26381687366491        1.28549998822876        0.08712040362994
N            2.30561283951938        0.21502198584923        0.04085977410315
C            2.55147835021583       -1.10843370766425        0.03464618696763
N            1.46202244993411       -1.84622937493815        0.00561114231807
C            0.44592409343524       -0.95562427518740       -0.00559651494981
C            0.93732716706543        0.34361332772270        0.01692438146015
C            0.08298578177007        1.49461703595423       -0.00259071551504
O            0.43521296507307        2.66008000555240        0.00171147609044
N           -1.26173291169548        1.12255984033810       -0.03178785861021
C           -2.25626259584930        2.18527167642148       -0.05139486723771
C           -1.78406753180932       -0.16631776499246       -0.04837862372348
O           -2.98043663174629       -0.35279095097546       -0.07345831328992
N           -0.88702679994339       -1.21667151973317       -0.03607311743501
C           -1.36642632211452       -2.58131946163262       -0.05696811114482
H            3.75240455729017        1.31586195691547        1.06315769469834
H            4.02318247415687        1.14186985084339       -0.68212749339665
H            2.74492431296808        2.22873245560661       -0.07886836580248
H            3.53980824563943       -1.52232761143299        0.04957857293679
H           -1.73029328366726        3.13716489005907       -0.02733955820037
H           -2.86268697655035        2.10994043199218       -0.95373724736740
H           -2.91440000769166        2.09268343991058        0.81215972248880
H           -1.01288080924993       -3.10931742178555        0.82875983799715
H           -0.98814325389964       -3.09160511935971       -0.94301501842587
H           -2.45432700612938       -2.55583897867691       -0.07226959096138
H            0.86619868755009       -4.83741209684354       -0.04988990048299
25
 energy: 19.660383941789 xtb: 6.6.1 (8d0f1dd)
C            3.26365348318590        1.28516941200221        0.08769589427979
N            2.30553813221678        0.21417979515312        0.04080743256451
C            2.55053826711835       -1.10936842836511        0.03412445944011
N            1.46034701062240       -1.84641149026091        0.00502447027831
C            0.44520872200828       -0.95559556993591       -0.00586965613041
C            0.93737059326631        0.34384633612925        0.01653270134162
C            0.08357033258724        1.49462713740411       -0.00313644427999
O            0.43480190532956        2.66033028283475        0.00113722980239
N           -1.26180385832372        1.12230097699193       -0.03209792400105
C           -2.25610331868225        2.18534036345997       -0.05149916896533
C           -1.78468417298401       -0.16538696589283       -0.04843857965212
O           -2.98088832932899       -0.35290699744233       -0.07319823083083
N           -0.88779114373255       -1.21625680063927       -0.03616823488718
C           -1.36674849687866       -2.58112342954678       -0.05663733963382
H            3.75201727530715        1.31543596195135        1.06391396474138
H            4.02314021651453        1.14220721437490       -0.68158102588881
H            2.74443974651459        2.22843217333435       -0.07797804760203
H            3.53921985614534       -1.52296677154455        0.04864089366450
H           -1.73004901408556        3.13717386415627       -0.02762674072578
H           -2.86274799385641        2.10995120057562       -0.95371924048705
H           -2.91403843402062        2.09280992283197        0.81225759322973
H           -1.01294762429761       -3.10891247118373        0.82921448352946
H           -0.98853325573575       -3.09156059383060       -0.94267518271714
H           -2.45450215960864       -2.55566511900347       -0.07177464135542
H            0.87320692865454       -4.83662140138232       -0.04991476956755
25
 energy: 19.660313045998 xtb: 6.6.1 (8d0f1dd)
C            3.26387566196424        1.28536063447012        0.08701615847494
N            2.30598589397232        0.21396408554817        0.04091923851475
C            2.55002659026481       -1.10969640076080        0.03475691110998
N            1.45994247024524       -1.84638140562679        0.00565830782786
C            0.44508587322378       -0.95524303830653       -0.00556706858478
C            0.93738488382465        0.34411891402835        0.01689210981493
C            0.08355914385985        1.49469419105638       -0.00242466398884
O            0.43462976480374        2.66048334907562        0.00187699926103
N           -1.26181639588963        1.12250373550770       -0.03177520214646
C           -2.25618135774831        2.18539062377882       -0.05137452348793
C           -1.78477222140179       -0.16570699951408       -0.04836913135428
O           -2.98101718056254       -0.35271256414759       -0.07349278641063
N           -0.88796779176755       -1.21585463493160       -0.03608760307895
C           -1.36667853932959       -2.58113819732865       -0.05706577745326
H            3.75244790993002        1.31594216314697        1.06304400869182
H            4.02319618007282        1.14190216704913       -0.68230276368200
H            2.74454081605241        2.22835651685906       -0.07903783142145
H            3.53924095438958       -1.52244704895184        0.04951138274814
H           -1.73026933198634        3.13728295878648       -0.02728318593535
H           -2.86259863878716        2.11002057282478       -0.95375006580584
H           -2.91439389277934        2.09275677874879        0.81216332509251
H           -1.01305583935032       -3.10903046814253        0.82865520083861
H           -0.98820263404323       -3.09121659838939       -0.94312605397377
H           -2.45446502656092       -2.55580838954642       -0.07242764987368
H            0.87371737553944       -4.83851234306213       -0.04937543903006
