25
 energy: 0.000000000000 xtb: 6.6.1 (8d0f1dd)
C            3.23720132972391        1.16630909158653        0.08434468864950
N            2.29877796055224        0.07527476373246        0.03981602671198
C            2.58028186251803       -1.21425391179017        0.03006175752192
N            1.43813944744728       -1.93419254010258        0.00098261751768
C            0.39035684826767       -1.05887462812143       -0.00790371763344
C            0.93510047688824        0.21347817468824        0.01709077332874
C            0.09450143016486        1.40504290868848       -0.00410946993748
O            0.49712746915594        2.54126690785742       -0.00342325656480
N           -1.25076628431515        1.06271869620815       -0.03085477937476
C           -2.21907191394203        2.15522079838987       -0.05001256521996
C           -1.81739470187490       -0.20012724136556       -0.04692818139228
O           -2.99983858926755       -0.37846413507442       -0.07008877579474
N           -0.92618577614240       -1.30210203518959       -0.03682761236648
C           -1.46982251276835       -2.64643077634382       -0.06029819901142
H            3.71247229913541        1.21471443890471        1.06488839270555
H            4.00791460421487        1.03430799217987       -0.67357688121503
H            2.69909982127087        2.09770098766290       -0.09130154035862
H            3.56654087521359       -1.63682977417947        0.04233139674524
H           -1.67107945562430        3.09322822573871       -0.02552706696334
H           -2.82428927394145        2.09428605349656       -0.95318074103337
H           -2.87644002486466        2.07745706351925        0.81450059976605
H           -1.17061985538665       -3.19584861009707        0.83242224714061
H           -1.14560246782873       -3.17511580834413       -0.95688266944647
H           -2.55549768731684       -2.55659960601237       -0.07459039105944
H            1.38130842369251       -2.94313824728853       -0.01389874052104
25
 energy: -6.033168630720 xtb: 6.6.1 (8d0f1dd)
C            3.24009036854018        1.17236308394352        0.08631765168264
N            2.30454904270333        0.09425143721868        0.03437034451681
C            2.59417421169106       -1.25608861121784        0.03202908920477
N            1.40995877397147       -1.96566345428960        0.00061715350188
C            0.40139353278285       -1.06678988314876       -0.00847008538396
C            0.92030238605661        0.22177462762848        0.01444522160715
C            0.11651223221841        1.38732100150121       -0.00489788178748
O            0.49367113376371        2.56203996559761       -0.00402661686299
N           -1.26837827471496        1.05438499728730       -0.03126799252856
C           -2.22273978170686        2.15163578237619       -0.04973391069848
C           -1.81549838983993       -0.19252284605176       -0.04736819064810
O           -3.01423800190470       -0.38203035434521       -0.07045645821839
N           -0.93740498494956       -1.29532437182983       -0.03725523598449
C           -1.46469586009583       -2.63874324767059       -0.06022757851637
H            3.71965907490263        1.22305862751021        1.06781749064397
H            4.01131910642701        1.04292066325342       -0.67517492807947
H            2.70110881418012        2.10318441016737       -0.08915602516216
H            3.57330375311911       -1.66176647329042        0.04356284238548
H           -1.66814742994777        3.08764631289658       -0.02550876679140
H           -2.82877226875150        2.09587649238423       -0.95364958274527
H           -2.88038397812819        2.07909562477199        0.81590904466305
H           -1.15651304997547       -3.18863184692842        0.83225448232411
H           -1.13154855229668       -3.16839756251307       -0.95610399393214
H           -2.54959111409732       -2.55566787656037       -0.07466197722939
H            1.32315849072982       -2.98608298280874       -0.01489863533412
25
 energy: -4.786254296286 xtb: 6.6.1 (8d0f1dd)
C            3.23945360529026        1.17196474867742        0.08656411250147
N            2.30613542306677        0.08600197927030        0.03064712690345
C            2.58782915623438       -1.27403841249867        0.03073732462722
N            1.39728177467324       -1.99288125490266        0.00040383466006
C            0.40312681760793       -1.07271394852610       -0.00970791954124
C            0.92124405636099        0.21651787505605        0.01130178312277
C            0.11772701700319        1.38599989448005       -0.00579359397111
O            0.49188967096808        2.56253544266688       -0.00425360039696
N           -1.26935779131797        1.05656549630948       -0.03172602688785
C           -2.22507941566321        2.15276508076256       -0.04958815598010
C           -1.81667247315146       -0.18989226773594       -0.04800158660256
O           -3.01569197021250       -0.38064889740490       -0.07080259009301
N           -0.93728958061560       -1.29029011792132       -0.03773656565066
C           -1.45806721835449       -2.63526762884135       -0.06011196383234
H            3.72089876282779        1.22632198627371        1.06746509447794
H            4.01170037785092        1.04948586110215       -0.67528770178310
H            2.70113886791049        2.10526178728466       -0.08658425635245
H            3.57072765878008       -1.67004792621131        0.04800762511198
H           -1.67057669512707        3.08859521806344       -0.02541843123590
H           -2.83172473283071        2.09718629005402       -0.95330304167457
H           -2.88270807912566        2.08012961183977        0.81628650390549
H           -1.14377948001331       -3.18135426142938        0.83270704002541
H           -1.11903205408469       -3.16164878799537       -0.95583895369993
H           -2.54265103184331       -2.55773981937016       -0.07451996621451
H            1.26814937366538       -3.02896746032272       -0.01428993541785
25
 energy: -2.285902171066 xtb: 6.6.1 (8d0f1dd)
C            3.23903111109209        1.17299553777543        0.08671962147995
N            2.30736357761281        0.08047803329218        0.03000912691147
C            2.58198088661115       -1.28910306180222        0.03053411929431
N            1.38526594686636       -2.01861469308220        0.00005807312201
C            0.40529644546834       -1.07779638019432       -0.00991648121115
C            0.92338166281246        0.21355516945743        0.01137141744348
C            0.11926256360330        1.38697179778424       -0.00450446260118
O            0.49230128483814        2.56400183374170       -0.00238959042599
N           -1.26943041681384        1.06027815242118       -0.03136350798283
C           -2.22754924659104        2.15475998136783       -0.05006886269209
C           -1.81666352544509       -0.18636890350885       -0.04812550732269
O           -3.01586826952032       -0.37795506740701       -0.07179975110377
N           -0.93664376885861       -1.28498670718805       -0.03757184752867
C           -1.45207653429174       -2.63179223332249       -0.05997060181378
H            3.72331173071747        1.23016899740543        1.06638648963975
H            4.01058819583662        1.05688091524597       -0.67718675832377
H            2.69962733217535        2.10778003099824       -0.08294669344227
H            3.57314281165647       -1.66419158530705        0.04802074646795
H           -1.67605703378768        3.09221165167917       -0.02570051281989
H           -2.83389184606846        2.09796260920993       -0.95401225048813
H           -2.88629225376510        2.08112871591257        0.81500416390999
H           -1.13301228399919       -3.17553027039455        0.83279016211962
H           -1.10799567070802       -3.15568599145272       -0.95541265870789
H           -2.53636720296936       -2.55947635408703       -0.07459384965335
H            1.21747749290049       -3.07470139162905       -0.01448254131389
25
 energy: 1.601046314577 xtb: 6.6.1 (8d0f1dd)
C            3.23951461779193        1.17563047074471        0.08727612728980
N            2.30884726590518        0.07680304692399        0.03058782946427
C            2.57630284082869       -1.30269578848114        0.03248117433040
N            1.37524603982999       -2.04512368872408       -0.00080788184147
C            0.40848019769357       -1.08283475776169       -0.00984240764033
C            0.92562702604937        0.21144023234630        0.01131001020610
C            0.12039556245114        1.38922715889927       -0.00433312818069
O            0.49292382879489        2.56610070723801       -0.00218040727099
N           -1.26911274267652        1.06480927117095       -0.03153435854152
C           -2.23057925038783        2.15688981977931       -0.05007528572235
C           -1.81525694820044       -0.18250667300781       -0.04856145378195
O           -3.01457047797211       -0.37423179466107       -0.07381811369033
N           -0.93520615692210       -1.27983627807148       -0.03740980583509
C           -1.44614139751656       -2.62861315190283       -0.05948074391544
H            3.72663937489578        1.23664537105340        1.06557595776982
H            4.01066105225831        1.06489801631986       -0.67812365541484
H            2.70083445439672        2.11268872270948       -0.07870098489874
H            3.57464018962616       -1.65921877448476        0.04847685955333
H           -1.68439942662971        3.09735802137165       -0.02589075781221
H           -2.83768177022353        2.09779624011639       -0.95337348589675
H           -2.88944337970884        2.08083734080271        0.81472944455591
H           -1.12393352494054       -3.17121945057679        0.83311776343402
H           -1.09793909754393       -3.15172983628260       -0.95401727131118
H           -2.52991836175362       -2.56041226813689       -0.07472480105106
H            1.19332236897281       -3.13120408382043       -0.01911779701587
25
 energy: 23.600656587684 xtb: 6.6.1 (8d0f1dd)
C            3.24431345452317        1.19356241044827        0.08526418482039
N            2.30637160999953        0.09564534251942        0.03297450628040
C            2.54797629732092       -1.24540651210927        0.03789125217801
N            1.41742128489906       -1.95279121408172        0.01521096625756
C            0.41768314854850       -1.04959081225156       -0.01066119827277
C            0.93426058023648        0.24418807898646        0.00998902569573
C            0.10500622360070        1.41557044600789       -0.00653882460085
O            0.47586669771127        2.57852756905018       -0.00577880994899
N           -1.26100994171655        1.07707540069826       -0.03271126821243
C           -2.23164218659560        2.16199494146779       -0.04706176939790
C           -1.80747015534853       -0.19255738623277       -0.05052488585656
O           -3.00525089069648       -0.36991975256131       -0.07696767981852
N           -0.92424561478348       -1.26770754486501       -0.03941295659097
C           -1.43544688974476       -2.62246915650858       -0.06278740794083
H            3.72747075098678        1.24281622956105        1.06340551145941
H            4.00999385924993        1.06686563969904       -0.67933524387372
H            2.70710661160952        2.12963277018000       -0.07853800725230
H            3.55293505542428       -1.62685556435508        0.05026502282567
H           -1.68469389472588        3.10144197715089       -0.02257368714571
H           -2.84128311853986        2.10381018939401       -0.94844281009455
H           -2.88707670534017        2.08339506985034        0.81987964374709
H           -1.10107895521312       -3.16200776381438        0.82484924656650
H           -1.07580208358624       -3.14064547019207       -0.95392861212999
H           -2.51932017309212       -2.56309787758467       -0.07749160137388
H            1.10529869086631       -3.57970083566428       -0.02448512831705
25
 energy: 20.827825821522 xtb: 6.6.1 (8d0f1dd)
C            3.24509744534743        1.20032535092639        0.08681079010869
N            2.30754169462003        0.09950855546499        0.03569128527475
C            2.54252875858559       -1.23974039602903        0.03886761913149
N            1.42038990485358       -1.95764599904283        0.00571855210235
C            0.42276520201694       -1.04632884372580       -0.00909609684625
C            0.93738165669873        0.24738057469330        0.01080570634135
C            0.10236487720450        1.42073770728339       -0.00419062256181
O            0.47410131466673        2.57968831641990        0.00154285717779
N           -1.25793432161473        1.08319271392036       -0.03188781283687
C           -2.23381502014054        2.16425034128600       -0.05005016162778
C           -1.80401673999831       -0.19181066494254       -0.04954199830230
O           -3.00134950467438       -0.36650297574954       -0.07558590974121
N           -0.92048361693204       -1.26155542181359       -0.03797565202561
C           -1.43085768068360       -2.61833948231933       -0.05927617660216
H            3.73054991422320        1.25023011837093        1.06348248342343
H            4.01013632967176        1.08127037425636       -0.68031072046202
H            2.70508658986890        2.13579645923170       -0.07391105752055
H            3.55231743183027       -1.61545105666490        0.04748165939621
H           -1.69267638571523        3.10709743006206       -0.02569673699759
H           -2.84103081588739        2.10127740858623       -0.95278159605820
H           -2.89248667851999        2.08374200910143        0.81435441102465
H           -1.09231110973288       -3.15512999967426        0.82818173910028
H           -1.06730306713912       -3.13624098232060       -0.94814911273123
H           -2.51459920180733       -2.56417689720854       -0.07421281689928
H            1.07962560102571       -3.69218094444925       -0.03619823766996
25
 energy: 19.476611076852 xtb: 6.6.1 (8d0f1dd)
C            3.24642602018319        1.20706983036684        0.08537116797517
N            2.30704585341952        0.10728502699752        0.03514347663926
C            2.54019896627148       -1.23120656596810        0.04232868293089
N            1.42165611764818       -1.95615840038129        0.01376228073079
C            0.42550591562604       -1.04100858189015       -0.00759107889713
C            0.93737072479456        0.25420262520267        0.01075677824109
C            0.10024240995345        1.42587833180770       -0.00243217751719
O            0.46811203429229        2.58534332652719        0.00578663991941
N           -1.25943610311448        1.08764357186317       -0.03139628205113
C           -2.23665177340399        2.16739142311800       -0.05077092913287
C           -1.80296511420825       -0.18802362354336       -0.04966554086594
O           -2.99954084856894       -0.36687797379568       -0.07500981127749
N           -0.91792258390653       -1.25551857892098       -0.03812927206785
C           -1.42288408724844       -2.61406545464164       -0.05912610869198
H            3.73265972593120        1.25548402670610        1.06171671091554
H            4.01083229167125        1.08886157295252       -0.68257535902289
H            2.70762561607823        2.14357693262819       -0.07488062814154
H            3.55189496726522       -1.60322085076305        0.05054175427651
H           -1.69660805146018        3.11097777533753       -0.02626829047728
H           -2.84264624442115        2.10300241624301       -0.95423453268513
H           -2.89710720787661        2.08656331755915        0.81232963958158
H           -1.07849404964794       -3.14800522565341        0.82787911018375
H           -1.05676913899304       -3.12965317171809       -0.94843853726155
H           -2.50688150388206       -2.56649006078826       -0.07241405498636
H            1.05987102595348       -3.78086934844289       -0.04276563686953
25
 energy: 18.715937006837 xtb: 6.6.1 (8d0f1dd)
C            3.24836448645733        1.21609080272912        0.08580980327760
N            2.30617140628621        0.11878811735022        0.03572772194315
C            2.53869549857180       -1.21899999044299        0.04419865801728
N            1.42349112189916       -1.94862554005206        0.01447951613044
C            0.42752307210435       -1.03266243219216       -0.00767922816850
C            0.93680420551793        0.26355918247304        0.01014139846815
C            0.09729540113406        1.43252644683105       -0.00318664835994
O            0.46047359298878        2.59295530736872        0.00533042789342
N           -1.26140646030519        1.09201971286309       -0.03179730306241
C           -2.23938058288707        2.17063264969953       -0.05101047375315
C           -1.80255485730070       -0.18448956394445       -0.04963052542556
O           -2.99828667866571       -0.36697137447988       -0.07472436003001
N           -0.91562651204751       -1.24932972485238       -0.03834276872018
C           -1.41460869240938       -2.61020249281236       -0.05849214928412
H            3.73655415109071        1.26194031923560        1.06127466492115
H            4.01171771439369        1.09661175825405       -0.68289172331617
H            2.71358017703743        2.15512122168881       -0.07351199497280
H            3.55140868945611       -1.58895500761038        0.04960016845472
H           -1.69962715065130        3.11457233611013       -0.02683680428713
H           -2.84571184241407        2.10521006779092       -0.95420135819700
H           -2.89964816557609        2.08910963238746        0.81221817454790
H           -1.06645599390504       -3.14171013920583        0.82866585508123
H           -1.04519193836433       -3.12370565927987       -0.94780298034453
H           -2.49892394304590       -2.56943717063855       -0.07149567462031
H            1.03658603881221       -3.88308700457635       -0.04403157406891
25
 energy: 18.461686304563 xtb: 6.6.1 (8d0f1dd)
C            3.24919328891935        1.22429335722307        0.08586594446752
N            2.30448908849484        0.12976250040896        0.03754312626366
C            2.53782675111040       -1.20637939854574        0.04409054281039
N            1.42702466395817       -1.93888474130608        0.01692225839467
C            0.42978698781337       -1.02359765590171       -0.00631435755020
C            0.93599578088356        0.27321499670153        0.01052396386984
C            0.09457467807343        1.43972712094516       -0.00440600469263
O            0.45366289111939        2.60110889201969        0.00366126829599
N           -1.26257968541914        1.09672818360433       -0.03264715616397
C           -2.24188470602896        2.17373081467369       -0.05041069676996
C           -1.80038882127094       -0.18126848958218       -0.05040980045456
O           -2.99580872713766       -0.36598949745013       -0.07579375395743
N           -0.91262965572002       -1.24320248297703       -0.03838501275207
C           -1.40550540085972       -2.60612746446349       -0.05886721869124
H            3.74088405271609        1.26651336372278        1.05962701551777
H            4.00974034106036        1.10363104156807       -0.68547460552836
H            2.71630260909906        2.16452913361560       -0.07172196876764
H            3.55125042492753       -1.57541605612994        0.04703718666629
H           -1.70271254342969        3.11811175172582       -0.02604403971581
H           -2.84911472983219        2.10766051507070       -0.95297468927832
H           -2.90119260199150        2.09042859469994        0.81344355904395
H           -1.05481440835006       -3.13437163399819        0.82934524066552
H           -1.03004900215463       -3.11638249803101       -0.94762269417860
H           -2.49032202273962       -2.57340223835676       -0.07411938902875
H            1.01338780276281       -3.99038215545113       -0.04306329358650
25
 energy: 18.563575721332 xtb: 6.6.1 (8d0f1dd)
C            3.24942594788515        1.23406425938280        0.08651351162878
N            2.30285394561664        0.14198371385038        0.03967513429684
C            2.53767660039510       -1.19229261504148        0.04419245047295
N            1.43114171692470       -1.92722171588786        0.01554918167336
C            0.43208267930384       -1.01365122755983       -0.00610400979703
C            0.93518483555724        0.28353794451321        0.01106467505097
C            0.09222797121212        1.44771965107691       -0.00463625477294
O            0.44905719845205        2.60979733712910        0.00379016949230
N           -1.26339064596102        1.10170232767623       -0.03293668149631
C           -2.24402790508024        2.17704456212779       -0.05102535278590
C           -1.79823645327468       -0.17821926778805       -0.04999098322622
O           -2.99363283806454       -0.36434563505255       -0.07507480755157
N           -0.90961463366958       -1.23711013493698       -0.03805209022746
C           -1.39678513207375       -2.60212668051733       -0.05767626032030
H            3.74289987578727        1.27479804713136        1.05939617668651
H            4.00871220377098        1.11274344306893       -0.68619477998178
H            2.71857274567681        2.17498239596158       -0.07063498066570
H            3.55133405175484       -1.56031339288464        0.04728587703339
H           -1.70644024213735        3.12213581321155       -0.02686962916897
H           -2.85108429380240        2.10985908901310       -0.95355660101991
H           -2.90327935093553        2.09327077713719        0.81276835098124
H           -1.04232742408527       -3.12687908377590        0.83121111221254
H           -1.01709615693137       -3.10991210035313       -0.94612585071164
H           -2.48214416170882       -2.57684998082865       -0.07331024272877
H            0.98881167066153       -4.11188168026095       -0.04908164834631
25
 energy: 18.789578652179 xtb: 6.6.1 (8d0f1dd)
C            3.25179740564502        1.24300547264316        0.08612244904875
N            2.30281133030904        0.15487887148899        0.04010746137353
C            2.53772148381285       -1.17763732414460        0.04198774613626
N            1.43496034125849       -1.91417902185161        0.01378842176034
C            0.43417883422296       -1.00262941871538       -0.00579397181918
C            0.93507939293332        0.29459448577337        0.01183327306749
C            0.09063463641612        1.45662305686381       -0.00452881642828
O            0.44786118269330        2.61883924003944        0.00397194375827
N           -1.26404239549137        1.10750846146223       -0.03309789816721
C           -2.24696381641017        2.18037897707309       -0.05153554200890
C           -1.79669903572249       -0.17452581182310       -0.04962585558613
O           -2.99226204853547       -0.36089397523148       -0.07444077976547
N           -0.90706993039833       -1.22997134513516       -0.03769192973701
C           -1.39005476220499       -2.59658827752515       -0.05703240138777
H            3.74700151582839        1.28230395484729        1.05832317192666
H            4.01023915031539        1.12024599433835       -0.68759015423182
H            2.72227286932678        2.18363769445054       -0.07197587777639
H            3.55076656681317       -1.54539908346713        0.04785527230455
H           -1.71205729683689        3.12676973903193       -0.02755302060435
H           -2.85381728798723        2.11190188607101       -0.95398094288621
H           -2.90597982631705        2.09584868309135        0.81222971893539
H           -1.03308295054631       -3.11762975755397        0.83273269685700
H           -1.00676748390630       -3.10186312776180       -0.94515757530957
H           -2.47498099965343       -2.57947012199680       -0.07327074800324
H            0.96975982395864       -4.22913603614917       -0.05200616331874
25
 energy: 19.044798162614 xtb: 6.6.1 (8d0f1dd)
C            3.25404428770551        1.25275666528820        0.08564119641323
N            2.30322747985036        0.16811871953602        0.03961757810673
C            2.53849062307556       -1.16266518959803        0.03822953192029
N            1.43954353252170       -1.90012231219316        0.01170214445224
C            0.43660334793559       -0.99132336939980       -0.00590008022793
C            0.93535235431560        0.30584918213305        0.01219846206920
C            0.08899775721222        1.46568301516407       -0.00451086689973
O            0.44624664005170        2.62832414886718        0.00417112924159
N           -1.26422126176356        1.11335254431812       -0.03334200740120
C           -2.24951444624747        2.18364746771326       -0.05156312272066
C           -1.79490072287642       -0.17123296051063       -0.04949551342229
O           -2.99064319886229       -0.35729612185262       -0.07407849871194
N           -0.90379728534134       -1.22257073766926       -0.03736213319242
C           -1.38398628378126       -2.58962997961438       -0.05691939045258
H            3.74792995214155        1.29037961387349        1.05853798483724
H            4.01210085613067        1.12818692155224       -0.68811355162823
H            2.72596366622771        2.19328914860906       -0.07430291687593
H            3.54908401826259       -1.53521724713012        0.04676310062999
H           -1.71676100745114        3.13103726436654       -0.02760955552655
H           -2.85628395093204        2.11405632098745       -0.95398308796091
H           -2.90837950352593        2.09766949349915        0.81230018670756
H           -1.02665132682565       -3.10720499953013        0.83348931752645
H           -0.99988121508862       -3.09201792627318       -0.94518284680458
H           -2.46825611097782       -2.57824760618101       -0.07322635991417
H            0.95224918815651       -4.35426547314492       -0.05110114462296
25
 energy: 19.245815007108 xtb: 6.6.1 (8d0f1dd)
C            3.25657506993224        1.26218672625394        0.08579517678844
N            2.30399200688284        0.18104565816198        0.03946937539165
C            2.53986721179883       -1.14787769658982        0.03683732804371
N            1.44435774478451       -1.88563333916762        0.01042904623547
C            0.43901615831687       -0.98025531470965       -0.00579229504297
C            0.93574447350201        0.31694218177973        0.01286543165882
C            0.08716880078390        1.47438899959080       -0.00399928423669
O            0.44371562968191        2.63769458567478        0.00424719727413
N           -1.26428862191786        1.11808676849359       -0.03350899615850
C           -2.25223052502939        2.18629557410382       -0.05187430171282
C           -1.79265028323413       -0.16873297187461       -0.04921515747429
O           -2.98871334141357       -0.35446708205082       -0.07389922571431
N           -0.89989724432212       -1.21699520631908       -0.03667698718963
C           -1.37815436416475       -2.58349852766043       -0.05649049866201
H            3.74788535914045        1.29674836287844        1.06006386400350
H            4.01371494706438        1.13498761574773       -0.68779526229193
H            2.73044858868047        2.20302972584456       -0.07607601959047
H            3.54434663108668       -1.53218367146709        0.04791589163101
H           -1.72161429618459        3.13482107677871       -0.02775003430080
H           -2.85926097962699        2.11498490642829       -0.95424056589737
H           -2.91140976371931        2.09778932659696        0.81174198297309
H           -1.01733369100334       -3.09833857609274        0.83305623692009
H           -0.99080258318682       -3.08350633449400       -0.94374737832283
H           -2.46298936169035       -2.57272500819151       -0.07263833392625
H            0.93161637882113       -4.47949351203418       -0.05147968524998
25
 energy: 19.416186944598 xtb: 6.6.1 (8d0f1dd)
C            3.25944215049378        1.27174629639213        0.08614771147670
N            2.30512611349873        0.19391367111329        0.04007555555835
C            2.54276137371836       -1.13271021350896        0.03669282221817
N            1.45092751931019       -1.87127518187183        0.00946706173723
C            0.44206289869853       -0.97032333764999       -0.00582500463803
C            0.93654082378007        0.32714393376628        0.01366203638903
C            0.08586122547040        1.48194137658475       -0.00343320332021
O            0.44053250387189        2.64625352913530        0.00387126342378
N           -1.26273782729364        1.12043152410404       -0.03361510407427
C           -2.25275982078166        2.18682084203118       -0.05197129275320
C           -1.78944550793917       -0.16736366153885       -0.04879062907433
O           -2.98600805769431       -0.35220911955004       -0.07352528213185
N           -0.89504700075949       -1.21371506123210       -0.03575292158990
C           -1.37289018057318       -2.57879293582504       -0.05601438577345
H            3.74971671124313        1.30539923472971        1.06101176310084
H            4.01658927329195        1.13544236735385       -0.68593825462794
H            2.73546308171231        2.21332083302151       -0.07710263291504
H            3.53920988136192       -1.53000437891029        0.05174426573055
H           -1.72521945190344        3.13757837779518       -0.02784771496040
H           -2.86034464294638        2.11403412879605       -0.95394047566854
H           -2.91091033361304        2.09538178713598        0.81188000829717
H           -1.00819777885633       -3.09275380714271        0.83178169572152
H           -0.98204395705610       -3.07730402605360       -0.94183508142334
H           -2.45914534333509       -2.56601186068362       -0.07234920133322
H            0.90935682520668       -4.60550226613807       -0.05154907588999
25
 energy: 19.551643563307 xtb: 6.6.1 (8d0f1dd)
C            3.26194169961267        1.28245533484412        0.08717994888674
N            2.30690771088562        0.20625047905232        0.04007054158636
C            2.54863550930375       -1.11821918490361        0.03568194214474
N            1.45934047157332       -1.85744357576915        0.00824932148157
C            0.44550946899397       -0.96222098209573       -0.00585681946720
C            0.93768862960998        0.33604090553693        0.01444027721710
C            0.08564078124439        1.48870718083076       -0.00337337298162
O            0.43852756583631        2.65397310908095        0.00305558622667
N           -1.26012458471994        1.12121373956676       -0.03306833704268
C           -2.25364430064259        2.18452887807549       -0.05152137639143
C           -1.78539324724829       -0.16697222851079       -0.04858647587662
O           -2.98238562192330       -0.35016090253060       -0.07291398172526
N           -0.89017998614155       -1.21534701445576       -0.03570467864200
C           -1.36848911450780       -2.58088235228234       -0.05639667392710
H            3.75089715337403        1.31455101145453        1.06302263000149
H            4.02101937129663        1.14388978247718       -0.68331907529060
H            2.73901261309458        2.22440222603028       -0.07686709020012
H            3.54252442542869       -1.51973613015230        0.05033369398481
H           -1.72987257524997        3.13754735361093       -0.02753881609997
H           -2.86032571475106        2.11023594924103       -0.95368198355053
H           -2.91132284879905        2.09155580077303        0.81230426233022
H           -1.00803991481765       -3.10197098372522        0.82993385527001
H           -0.98325865101969       -3.08543420117450       -0.94211699852453
H           -2.45607834121993       -2.55923086958244       -0.07221989078326
H            0.88183524272979       -4.72996848559131       -0.05144151593696
25
 energy: 19.660288571345 xtb: 6.6.1 (8d0f1dd)
C            3.26387535915147        1.28536051521815        0.08701615040184
N            2.30598568002974        0.21396406569721        0.04091923471838
C            2.55002635368085       -1.10969629780644        0.03475690788534
N            1.45994233479608       -1.84638123432496        0.00565830730290
C            0.44508583193002       -0.95524294968189       -0.00556706806828
C            0.93738479685684        0.34411888210201        0.01689210824773
C            0.08355913610748        1.49469405238306       -0.00242466376389
O            0.43462972448007        2.66048310224381        0.00187699908689
N           -1.26181627882202        1.12250363136511       -0.03177519919845
C           -2.25618114842645        2.18539042102472       -0.05137451872155
C           -1.78477205581588       -0.16570698414027       -0.04836912686673
O           -2.98101690399255       -0.35271253142396       -0.07349277959219
N           -0.88796770938451       -1.21585452212819       -0.03608759973085
C           -1.36667841253318       -2.58113795785825       -0.05706577215887
H            3.75244756178896        1.31594204105773        1.06304391006573
H            4.02319580681253        1.14190206110681       -0.68230270037996
H            2.74454056142200        2.22835631011871       -0.07903782408855
H            3.53924062602923       -1.52244690770369        0.04951137815462
H           -1.73026917145705        3.13728266771861       -0.02728318340410
H           -2.86259837320369        2.11002037706329       -0.95374997731972
H           -2.91439362239046        2.09275658458898        0.81216324974239
H           -1.01305574536198       -3.10903017969584        0.82865512395842
H           -0.98820254236070       -3.09121631159542       -0.94312596647331
H           -2.45446479884288       -2.55580815242605       -0.07242764315406
H            0.87371729447852       -4.83851189415921       -0.04937543444915
