  25
        -42.16099873
 C          3.1823581176        0.7457672315        0.0059296032
 N          2.1958829887       -0.3062105714       -0.0023175763
 C          2.6942711499       -1.6034824716        0.0169148968
 N          2.0752101136       -2.6734280558       -0.0044355532
 C         -0.0365664158       -1.1668694116       -0.0135497165
 C          0.8329447193       -0.0984364435       -0.0058272674
 C          0.2465656663        1.2511878247       -0.0060709930
 O          0.8770920744        2.2927550936       -0.0194012307
 N         -1.1395973513        1.2866843225        0.0065075971
 C         -1.7926082950        2.5828181113        0.0157947432
 C         -1.9919474021        0.1980376017        0.0063599954
 O         -3.1911288150        0.3210146677        0.0158603668
 N         -1.3730640234       -1.0479589835       -0.0060826348
 C         -2.2131029058       -2.2265567875       -0.0125341199
 H          3.7270572528        0.7468900333        0.9549288117
 H          3.8973272273        0.5934241953       -0.8058693605
 H          2.7084656682        1.7200338227       -0.1189227585
 H          3.7918593317       -1.6261650891        0.0549363351
 H         -1.0296621967        3.3595912407        0.0353546185
 H         -2.4170773453        2.6898280062       -0.8735393263
 H         -2.4391573182        2.6634459541        0.8918708314
 H         -2.0244550004       -2.8304736032        0.8764081375
 H         -2.0123743261       -2.8300377437       -0.8987261631
 H         -3.2551682411       -1.9066342342       -0.0184623554
 H          0.3632880403       -2.1967259624       -0.0374519606
