  25
        -42.15224408
 C          3.2038154291        1.1380700971        0.1889254969
 N          2.2406247987        0.0775505973        0.0668526426
 C          2.5068247993       -1.2091692818       -0.0664892384
 N          1.3548376588       -1.9116078160       -0.1156728928
 C          0.3058229769       -1.0393737559       -0.0033513920
 C          0.8713057430        0.2426523666        0.1018373764
 C          0.1360218981        1.4850362001       -0.0277414949
 O          0.6069329079        2.5942901905       -0.1303408855
 N         -1.2513187473        1.2123880690       -0.0995093441
 C         -2.1348590260        2.0571780313       -0.4520227810
 C         -1.9123709071       -0.3517242889        0.6222350768
 O         -3.0910251309       -0.4210908673        0.3661933616
 N         -0.9891268860       -1.3283266510        0.0113512227
 C         -1.5364055285       -2.5851035638       -0.4408230492
 H          3.4626913851        1.2900701828        1.2388503161
 H          4.1066531957        0.8911292818       -0.3659219912
 H          2.7698561409        2.0628229070       -0.1912921413
 H          3.4870834424       -1.6395150446       -0.1308411640
 H         -1.8906334539        3.0748430075       -0.7294755715
 H         -3.1620498503        1.7111897370       -0.4579117741
 H         -1.5244376545       -0.0669536838        1.6186856752
 H         -1.4031071742       -3.3747660409        0.3020532936
 H         -1.0825134441       -2.8806912990       -1.3863912207
 H         -2.6056033369       -2.4262046573       -0.5885721061
 H          1.2820971330       -2.9128656083       -0.2267893616
