72
 energy: -99.272499173774 gnorm: 0.006926176198 xtb: 6.6.1 (8d0f1dd)
N           -1.80512295668951        2.84359957455868        2.14962431457055
C           -1.81650443995641        2.06781744134642        1.16787651543027
C           -2.98473185786347        1.88045504946661        0.23986137895254
C           -3.47389261813072        0.44314919332039        0.32725251955910
C           -4.38757676290099       -0.03606381963078       -0.61409642170858
C           -4.88292720414655       -1.32658612059913       -0.55071375524891
O           -5.77108374962218       -1.86381229871517       -1.41887882506871
C           -6.32483677204389       -1.04685984560805       -2.42201336612561
C           -4.45383202424938       -2.18957941073424        0.49014033946916
O           -4.98916603820079       -3.43150554075462        0.47568722496938
C           -4.69652595110762       -4.30925074736683        1.53629889505065
C           -3.54875145281562       -1.70939338438375        1.42143066105615
C           -3.06701954324247       -0.40812081889531        1.34073420765403
C           -2.44959900887891        2.17800282154917       -1.18630971524604
C           -1.56045584179139        1.07280697255896       -1.78654745003560
C           -0.22320952511085        1.00434596655843       -1.15989790339828
N            0.40158056753128       -0.11315932821122       -0.78031769348714
C            1.75743598529644       -0.04333000254756       -0.29478056868504
C            2.79586951496832       -0.37338029520877       -1.38518882262315
C            4.16041781518631        0.03177237358111       -0.89798290448107
C            4.57319618316362        1.35275362713048       -1.03021845007127
C            5.79291486802190        1.78316043642981       -0.52029943672390
C            6.54310830968132        0.82549605164240        0.09992916511456
O            7.82450564878172        1.28271307489338        0.70264253846433
C            8.99547229807589        0.88324179052519       -0.04411515336319
C            6.21040144193412       -0.52483600785196        0.25076471096087
O            7.11577763015344       -1.32515181747966        0.87721922753651
C            6.78285804173596       -2.67960748272869        1.08827813868874
C            4.97591479317611       -0.90286355370513       -0.26086539554918
C           -0.21367642549865       -1.41228944183723       -0.89779368232116
C           -4.18561481612318        2.81909630130021        0.55691774571584
C           -4.78278813308616        2.51756784794033        1.92967434944134
C           -3.83193013059503        4.30125082055769        0.46487957555198
H           -4.72624102981927        0.61847282336001       -1.39982506182704
H           -6.84248493054665       -0.18187874173642       -1.99596323906356
H           -7.04400519586015       -1.67393113277011       -2.94533545444147
H           -5.56287355793920       -0.70507172472648       -3.13073936937867
H           -4.99918836369440       -3.88866433425670        2.50012770141750
H           -5.27482736738955       -5.20966079761595        1.33831780405930
H           -3.63184215853403       -4.56343816042289        1.56741644812244
H           -3.21738828645683       -2.33706324849355        2.23283007663237
H           -2.38720261713890       -0.06064552337282        2.10337442267029
H           -3.29878271525945        2.32810609148457       -1.85242727829726
H           -1.88410329003705        3.11033482179980       -1.15989660191880
H           -2.07689453175744        0.11603945111762       -1.73328752812840
H           -1.42534507019436        1.32093116587488       -2.84785618913112
H           -0.94413379621646        1.46819208182844        0.85109287691783
H            0.34712322672042        1.91819298081537       -1.09542238606246
H            1.87537457653698       -0.73348583414583        0.54498901684219
H            1.95138410087804        0.96863642037457        0.06893904088996
H            2.54304093988679        0.18714966800385       -2.28718397121889
H            2.76733217177019       -1.43796556393767       -1.62050460850502
H            3.93301147684035        2.05867121709827       -1.54081686770056
H            7.75455552209873        2.25818873514174        0.69018714711622
H            9.86975191444880        1.31392333830770        0.44070393839437
H            8.93184655450745        1.21079956237651       -1.08276062633237
H            9.05180293734385       -0.20427423132957       -0.00011182249938
H            7.62759208838120       -3.10838521638677        1.62386483001906
H            5.88049109263540       -2.77620424558589        1.69777006106085
H            6.64631900915525       -3.20667379106971        0.13976403600156
H            4.64116584737803       -1.92480324277285       -0.17556011643077
H           -0.39871717071195       -1.66885742768668       -1.94327092998837
H           -1.16386719765445       -1.43708825047294       -0.35740958606003
H            0.44749861211128       -2.16139149945559       -0.46998337167568
H           -4.95257516194538        2.60532813883808       -0.19670693469866
H           -4.05903120290323        2.74078957772337        2.70665481275626
H           -5.07709290145342        1.47389327886992        2.00902983406684
H           -5.66355422992136        3.13448020702716        2.08764716194121
H           -3.04890630964392        4.54416324744658        1.17606559940693
H           -3.50928088008617        4.58065669189637       -0.53456809710806
H           -4.71048381958970        4.89296164118841        0.70873749036502
H           -0.94316053457765        2.90227192106308        2.68419062036083
