  25
        -42.15924060
 C          2.7140632811        1.3299583218       -0.5851453109
 N          2.0831828044        0.0667775707       -0.3145478951
 C          2.6609698329       -1.1222131813       -0.3679703707
 N          1.7630455701       -2.0622805149       -0.0503277015
 C          0.5639001685       -1.4590972077        0.2354032298
 C          0.7607230214       -0.0931557365        0.0353200968
 C         -0.0772360011        1.0905291747        0.3708468734
 O          0.3852523848        1.9751170143        1.0543068343
 N         -1.3728123596        1.1320432278       -0.0930732970
 C         -2.1805015167        2.2586123401        0.3577749637
 C         -1.9132808607        0.2629905473       -1.0233759221
 O         -3.0467963338        0.3093503445       -1.3955654269
 N         -0.5481833179       -2.1876241756        0.4548445532
 C         -1.4196820384       -2.0611655330        1.3588644382
 H          2.6730595654        1.9586762219        0.3072041903
 H          3.7496154015        1.1678914766       -0.8760877112
 H          2.1886235837        1.8502696502       -1.3878347889
 H          3.6863008130       -1.3078052567       -0.6236095671
 H         -1.6836940671        3.1916481340        0.0905491139
 H         -3.1515344576        2.1969157423       -0.1280610630
 H         -2.2974566240        2.2271410286        1.4396228323
 H         -1.3376539365       -1.3727374981        2.1929905182
 H         -2.2889189752       -2.6975653790        1.2980627527
 H         -1.1909842934       -0.4789028383       -1.3959827969
 H          1.9321222853       -3.0589391627       -0.0053892756
