25
 energy: -42.152376253671 gnorm: 0.003913043674 xtb: 6.6.1 (8d0f1dd)
C            3.09036493839826        0.97342580965392        0.12204902020759
N            2.08440694245408       -0.03519199445455        0.33790608115989
C            2.36082922825015       -1.22624953351085        0.86684253089280
N            1.23854451235956       -1.95801911371223        0.90871914635983
C            0.20232483371084       -1.21147165664821        0.39465557769684
C            0.73552218843391        0.02990241562445        0.03934961186113
C            0.10580846314464        1.29376206122696       -0.45411611487816
O            0.81013154712993        2.25749206827920       -0.78392544304439
N           -1.21290020088322        1.27280661106124       -0.46227855986432
C           -1.97990465678921        2.40681457995704       -0.81225202862158
C           -1.44491234418351       -2.63189788905987        1.25821643900229
O           -1.14517294425892       -3.26368548480203        2.20612809970386
N           -1.08164599162022       -1.78174550451913        0.34098851704322
C           -1.96995719934477       -1.47781900427572       -0.77475319361066
H            3.68603431724529        1.10165476677975        1.02486078015936
H            3.74544616510406        0.67629760240640       -0.69865927655263
H            2.60660647206163        1.91452137110645       -0.14524835572895
H            3.32623580864416       -1.54725480510020        1.20400348363419
H           -1.35789448816319        3.22770486850557       -1.18792179412306
H           -2.71516695867126        2.12649493101422       -1.57193957321678
H           -2.52993775773869        2.75178449392151        0.06989503328914
H           -1.59902915128143       -1.95338876751029       -1.68408368360094
H           -1.98752891788337       -0.38966473652853       -0.90726002844084
H           -2.96696516946864       -1.84725464222048       -0.55008050974286
H            1.15919187745666       -2.89077990559362        1.29007585832061
