25
 energy: 35.155563587819 xtb: 6.6.1 (8d0f1dd)
C            3.24686683297106        1.15354604016103        0.10839156025854
N            2.25536139732425        0.10943156838843        0.04993644975309
C            2.57250032622544       -1.21649382348115        0.06923703370066
N            1.40979616657740       -1.94876682346182        0.01809781817607
C            0.31647460470503       -1.11393080022006       -0.02735922046653
C            0.85291063798452        0.17682260119895       -0.00207232790298
C            0.06735374809871        1.30565400306221       -0.05922553157558
O            0.48167515679531        2.46443112576727       -0.08037560194117
N           -1.54332410594049        1.03088096804128       -0.11831366636978
C           -2.17371058869076        2.32040448945072        0.01279710432186
C           -2.28970746026135       -0.07546472382935       -0.21364870553175
O           -3.40142826943714       -0.48811685454126       -0.31066751316333
N           -1.02927776647449       -1.33022609707099       -0.07418821574175
C           -1.39387011390461       -2.71965669026808       -0.04622788482596
H            3.75297361895731        1.16456379390866        1.08214468538184
H            4.02005460227731        0.99531533379968       -0.65175942990625
H            2.76226909644775        2.11485532410000       -0.06388523062137
H            3.57664078140795       -1.59023578751629        0.08988226658404
H           -1.42599817105964        3.12439921391767       -0.09619240199902
H           -2.92346054247312        2.43809066671383       -0.75147600696855
H           -2.62254497391851        2.41537205880494        1.00184495733253
H           -1.00126844256546       -3.22600438265906        0.84438386867384
H           -1.02037999660501       -3.24249593773710       -0.93181744469012
H           -2.47932761425299       -2.76460945685818       -0.03618673880808
H            1.46887896282217       -2.95239358891514        0.00725261998998
