25
 energy: 112.873596398270 xtb: 6.6.1 (8d0f1dd)
C            3.31540800306860        1.17127573616569        0.06054990242960
N            2.37304950130914        0.06304563848563        0.03523486372986
C            2.71726660652288       -1.21803121348514        0.03532669288491
N            1.61041472331426       -1.99173095418655        0.03765883880236
C            0.45859434879055       -1.16344246854700        0.02749764778377
C            0.98982140633391        0.16055792120481        0.02829784824035
C            0.17156775386483        1.38456816719555       -0.00392424941771
O            0.71309102311642        2.50058220977678       -0.04564794876983
N           -1.19584055916289        1.16961335551244        0.08583210180578
C           -2.04838383359686        2.30414263065472        0.02193450561271
C           -3.61608205986538        0.29795099601500       -0.41682714301507
O           -4.09019033765411       -0.70678249139646       -0.19298734275362
N           -0.77726332378546       -1.43853118681401       -0.04624440069283
C           -1.28212596735301       -2.78416824929700       -0.02436805004281
H            3.81536201557341        1.27437221737562        1.02668570973498
H            4.09259191227224        1.07728778412703       -0.70194649578234
H            2.75872735358438        2.09440879859877       -0.11395721539753
H            3.73701121644239       -1.56539031146075        0.03813273650657
H           -1.53066824601272        3.25904500863183        0.07634400435437
H           -2.50803164690228        2.21229704381152       -0.95354596102579
H           -2.80142814539179        2.22424389800132        0.80654386020386
H           -0.97574269968341       -3.36898568162620        0.85696422385869
H           -0.98534009391666       -3.36059237857638       -0.91190226936589
H           -2.37456180486902       -2.72238730663037       -0.01964241682972
H            1.59704789375584       -2.99574646611442        0.00637213740892
