25
 energy: 60.786528467154 xtb: 6.6.1 (8d0f1dd)
C            3.24952081967973        1.14690734663896        0.11196301479916
N            2.26023927715406        0.10297371661975        0.05147042217322
C            2.58496689407416       -1.21025242314176        0.07621976988179
N            1.43782407244784       -1.95869526503628        0.01912328712118
C            0.32847760748102       -1.14178849041075       -0.02846272762327
C            0.86016285604209        0.16480832566126       -0.00357360857601
C            0.13815675898239        1.30716943700764       -0.05078980422556
O            0.51171216660310        2.46885938552135       -0.07183930923446
N           -1.65792187384841        1.03104504769226       -0.14121923672059
C           -2.17037844947546        2.36307797448042        0.01587263259866
C           -2.48817880005540        0.04898388927761       -0.22771239769107
O           -3.50708972446546       -0.52665974638296       -0.32148112626589
N           -0.97418770005978       -1.37297612818009       -0.06788515380710
C           -1.36226670189898       -2.74649703068786       -0.04723297511849
H            3.74709185391234        1.14969522915723        1.08814330920447
H            4.02873647763412        1.00292891794241       -0.64898547391530
H            2.77842103650760        2.11646216982564       -0.05431097448518
H            3.58920821333497       -1.57063538767334        0.09844210301613
H           -1.39523751602461        3.12402904299981       -0.15482744586068
H           -2.95595088668837        2.51563629500628       -0.70234503512039
H           -2.54339239867385        2.48412522960956        1.03036639644889
H           -0.96875038517913       -3.24589891402181        0.84424264959782
H           -0.99278920901799       -3.26508470188814       -0.93506196510756
H           -2.45180683070030       -2.79464931903472       -0.03630583031864
H            1.49762702213269       -2.95923346407962        0.00834125850372
