25
 energy: -0.561279380813 xtb: 6.6.1 (8d0f1dd)
C            3.25239932266444        1.17594540592606        0.09121825010510
N            2.28913323961585        0.11578880510066        0.03515602192447
C            2.58936962398384       -1.23341605087751        0.04242320735153
N            1.39662812714779       -1.93231605669191        0.01208980848530
C            0.34770798223577       -1.06624669773830       -0.01288627063804
C            0.88855961150512        0.21098214238862        0.00653714362137
C            0.05715964437405        1.33398640137838       -0.03490075491364
O            0.45909325133684        2.50136881616106       -0.06491730535651
N           -1.37040470100296        1.01903351731836       -0.05663200683271
C           -2.19745157368667        2.21027553074575       -0.02069695941496
C           -1.99027478130399       -0.20488662471963       -0.12000766203137
O           -3.17462456396794       -0.42965784900002       -0.15611806447055
N           -1.01471170359354       -1.29027440932972       -0.05794305822084
C           -1.44628336507140       -2.66981571374771       -0.05458517230327
H            3.74964161468992        1.21614825323797        1.06880812906288
H            4.03100161292666        1.03288891262985       -0.66704046009765
H            2.72544492205803        2.11211343192372       -0.08231686500255
H            3.57966801524392       -1.63731164775518        0.05727644364008
H           -1.56156742089722        3.10172149661944       -0.04186555726378
H           -2.84817500443186        2.22881594501399       -0.88223471535300
H           -2.78475825045109        2.21330171855416        0.89442460987429
H           -1.10160867514432       -3.20470955271267        0.83640632464998
H           -1.09451757477053       -3.19846610618144       -0.94495805782179
H           -2.53113909244210       -2.64353399908164       -0.05918544384052
H            1.40294542325087       -2.93871213445415       -0.00127053864160
