25
 energy: 116.114714657560 xtb: 6.6.1 (8d0f1dd)
C            3.31371372280104        1.17294855595143        0.07587743208628
N            2.35980830646143        0.07640590140263        0.04403835034690
C            2.71159615414825       -1.19810009966449        0.05705970378369
N            1.62045184247477       -1.98590145860722        0.03185293430144
C            0.45063660092999       -1.17772853441738        0.01943650959075
C            0.97037653987958        0.15313755248806        0.02664928446438
C            0.17182805775283        1.37742505158361        0.01946770005510
O            0.74711273300043        2.47602395457744        0.00671030743090
N           -1.25560298088105        1.15138999428574        0.09718558653028
C           -2.05246847216889        2.31565618324574        0.03363314520889
C           -3.51612412448747        0.26057034162050       -0.43066725486857
O           -4.14112667729660       -0.65483693466776       -0.19729195557881
N           -0.77192109778653       -1.51282780505956       -0.02889127273776
C           -1.25427603547470       -2.86221139003128       -0.02950405263525
H            3.80839695671304        1.24661872963257        1.04880643397012
H            4.08472111256123        1.05226082181018       -0.68776360036202
H            2.77160301366377        2.10353947020735       -0.09910936199088
H            3.72778274221923       -1.54721277488815        0.07600921681811
H           -1.48979678203984        3.24595730412749        0.03684307435075
H           -2.63537178727459        2.27580773899983       -0.88653163734929
H           -2.76170492188410        2.27260488703219        0.86402069544156
H           -0.92771289047527       -3.42134641378038        0.85584794497881
H           -0.94250607910178       -3.40602253894256       -0.93083947615177
H           -2.34974308550705       -2.80551399751337       -0.02477564962920
H            1.64166599661543       -2.99110367085951        0.00692225242597
