25
 energy: 106.148616873773 xtb: 6.6.1 (8d0f1dd)
C            3.32401002683918        1.16974646544992        0.07662777398608
N            2.37667634409144        0.07033227002377        0.03548845984215
C            2.72020085287619       -1.21480616792799        0.02257549311982
N            1.60823737146521       -1.98129007061213        0.02547694274519
C            0.46823430900779       -1.13959772585212        0.01036084019287
C            1.00234531703795        0.18704553607336        0.02242572911782
C            0.24185454745300        1.45245033004735        0.00076217175131
O            0.84465735067951        2.54674038120447       -0.05686807158965
N           -1.07585822333662        1.23835492202040        0.07380435104249
C           -2.01622985600103        2.31690777125077        0.01658860469086
C           -4.06676529697618        0.19706161056950       -0.43909957269757
O           -4.37826773743343       -0.87856479442377       -0.25995884361946
N           -0.76873624214600       -1.42408397310868       -0.04165455286201
C           -1.27379136044829       -2.77348992293273       -0.01509860850974
H            3.80914705740771        1.24003852473766        1.05459129633791
H            4.09930371894537        1.06235691685382       -0.68315494023864
H            2.77395910107386        2.09959369213821       -0.09937237093307
H            3.73404550006647       -1.57548258102696        0.03084224220713
H           -1.51398215352539        3.27837382838947        0.02651789958736
H           -2.54057403736570        2.25075126119812       -0.94319268173367
H           -2.74612364971868        2.25053142069590        0.83874719961611
H           -0.98659450083482       -3.36495731928426        0.86867822879884
H           -0.98859877746049       -3.34953394931239       -0.90565183222610
H           -2.35485064797460       -2.67860696328163       -0.01495394705929
H            1.58213898735882       -2.98673052056927       -0.00236562876745
