25
 energy: 86.543126592171 xtb: 6.6.1 (8d0f1dd)
C            3.28942445192762        1.15878678667152        0.10521011778781
N            2.32879788762590        0.08170152935332        0.07661866676044
C            2.64374011068826       -1.19286004278437        0.07305683538358
N            1.53967573006519       -1.97160870436859        0.03183086965371
C            0.38859606955118       -1.15389054885075       -0.01751675187843
C            0.92334600415957        0.17758340077060        0.01628145053635
C            0.31146860117430        1.37766469306201       -0.07565160868355
O            0.72780677060896        2.51392105932421        0.00052842210641
N           -1.90241629543085        0.96767263799401       -0.09923652210514
C           -2.15302968816358        2.40681893216495        0.01928832362119
C           -2.96529081398102        0.32657927567557       -0.25260669136364
O           -3.81297324194741       -0.48660165468813       -0.31947536360310
N           -0.83716645169111       -1.44996423041705       -0.05092849819484
C           -1.26263301996841       -2.80790457522771       -0.03655048471579
H            3.78707059775679        1.19758658078598        1.07676009303251
H            4.06753118884699        1.04725640330388       -0.66201321303734
H            2.77958498140535        2.10486992131511       -0.05185461416373
H            3.65001772326669       -1.55045576944713        0.08137508983346
H           -1.37850635128599        3.15645871536657       -0.15643410376722
H           -2.88392638340075        2.55199869311897       -0.75727774755238
H           -2.52509136567734        2.54748960004328        1.03155461174560
H           -0.86040280691245       -3.29411932395270        0.85173080060578
H           -0.90110723211750       -3.31168133480341       -0.93173680318480
H           -2.35464669790639       -2.88818381727437       -0.01447762314008
H            1.58285220873065       -2.97190120875773        0.00611511810308
