25
 energy: 77.122071862309 xtb: 6.6.1 (8d0f1dd)
C            3.26353701652122        1.14544316780641        0.10783248472673
N            2.28881996554222        0.08497500495469        0.03581621261343
C            2.60563619561460       -1.20335538993953        0.07666694861474
N            1.48404185458299       -1.97034558670388        0.01441022319547
C            0.34718435795464       -1.15804850893843       -0.02457655306804
C            0.88916991781399        0.16078266377021       -0.01642740450111
C            0.23316280364376        1.33460237943940        0.01329363330791
O            0.60066685252801        2.48616318106394       -0.06431658146064
N           -1.79788363877617        0.98862991472158       -0.15147628283121
C           -2.16048877956590        2.38281138945476        0.01690106284753
C           -2.74343807494127        0.18791259174695       -0.26921932233615
O           -3.63730423269922       -0.56316747257224       -0.36043356694972
N           -0.90401599378534       -1.41584226223391       -0.04872877287993
C           -1.32459547813839       -2.77550682363713       -0.03812558155531
H            3.75455420179408        1.16855921697158        1.08643223967250
H            4.04406166361128        1.01250899491047       -0.65436785281875
H            2.78421455180600        2.11165532948008       -0.05177729007217
H            3.61036317159696       -1.55496854651338        0.11249384356759
H           -1.38385528184882        3.11230476546722       -0.20749964176444
H           -2.96083472623534        2.55340320239273       -0.67982116855852
H           -2.46879330920632        2.53472330081402        1.04555615987150
H           -0.92990815835102       -3.26673236601915        0.85271662984607
H           -0.96310845578513       -3.28727508918688       -0.92944101668149
H           -2.41811407576691       -2.82672789861541       -0.02322461768040
H            1.53131630094676       -2.96902069666476        0.01022886893360
