25
 energy: 6.799820363803 xtb: 6.6.1 (8d0f1dd)
C            3.25258746314479        1.17120190627162        0.09732016247537
N            2.27145135129409        0.12014706088728        0.03940399390681
C            2.57590070977800       -1.22794149144122        0.05826587401061
N            1.38954578497185       -1.93657060906885        0.01636613839600
C            0.32334154486512       -1.07880803910062       -0.02274352151840
C            0.86587631936009        0.19797671043809       -0.00262425880278
C            0.02669756626117        1.31034736717070       -0.06525681928317
O            0.45079515812187        2.46958831554105       -0.10273396270391
N           -1.42803386053118        1.01259519610016       -0.08035123465764
C           -2.19125251028407        2.24317282753969       -0.00877473298439
C           -2.07925752501859       -0.19892378980562       -0.16092476050018
O           -3.25279674923865       -0.45414998868487       -0.20710890508020
N           -1.05240386136509       -1.29088250797192       -0.07749386860309
C           -1.43684268557804       -2.68397330977483       -0.05496742310268
H            3.76087298509924        1.20655612951555        1.07085576609460
H            4.02880984873413        1.01638093676019       -0.66001204521651
H            2.73906630937160        2.11467546316421       -0.07868577330424
H            3.57427651828208       -1.62114066670228        0.07206158717758
H           -1.51366921377934        3.10705330909134       -0.05444622086221
H           -2.87367481770037        2.30221101106665       -0.84133879863293
H           -2.73581469440100        2.28374104624537        0.93250758261441
H           -1.06813005279053       -3.20483578359441        0.83651888707035
H           -1.07106596890989       -3.21031272600046       -0.94143225451107
H           -2.52096908346924       -2.69125114996275       -0.05284338679793
H            1.42234797234202       -2.94280390677683        0.00474421815114
