25
 energy: 17.201674919693 xtb: 6.6.1 (8d0f1dd)
C            3.24906310981221        1.16081104326369        0.10524955803877
N            2.25853730855239        0.11604835342024        0.04572882445512
C            2.56847686210102       -1.22328886165347        0.06480178465027
N            1.39324797031166       -1.94206495365258        0.01594198176072
C            0.31382681855353       -1.09407811111069       -0.02921909875319
C            0.85394047000588        0.18683161716823       -0.00605581013507
C            0.03367570974358        1.30482756946598       -0.07098322593525
O            0.46792437637386        2.45930477093465       -0.09846057300515
N           -1.47821210892696        1.01949448808873       -0.10353525539398
C           -2.18196798813911        2.27916233198617        0.00045595267348
C           -2.16809928268104       -0.16241064372588       -0.18596562215778
O           -3.32210678928039       -0.47472187573061       -0.25142283168446
N           -1.05702067302888       -1.30335509043205       -0.08302628461427
C           -1.41805961043714       -2.69940528704347       -0.05268266977425
H            3.75808755277281        1.18336559329551        1.07867907260726
H            4.02094740646818        0.99614429629702       -0.65384320168469
H            2.75127090835584        2.11398299672045       -0.07076352167059
H            3.57070822088884       -1.60787108211716        0.08420597921716
H           -1.46864542203849        3.11535568801340       -0.07347980979353
H           -2.89748121201777        2.36962294180462       -0.80007244551817
H           -2.68146149632082        2.34845968396456        0.96652286384514
H           -1.03314766535142       -3.20986181084365        0.83895192682361
H           -1.04441553985787       -3.22379383732785       -0.93740280284329
H           -2.50189400604257       -2.73030069291897       -0.04599329330233
H            1.44205132952483       -2.94735664684690        0.00565341210953
