25
 energy: 103.578173561501 xtb: 6.6.1 (8d0f1dd)
C            3.32007853569889        1.16342442793769        0.09440618400940
N            2.37111927403467        0.07589457106740        0.04720596533555
C            2.71271067694905       -1.20581344865539        0.04608989908407
N            1.60588619829596       -1.97132539557293        0.02704072671261
C            0.46068732376737       -1.12615187968075        0.00569829237213
C            1.00978346206155        0.19447882189593        0.02305743765926
C            0.27399724815172        1.47438509433426       -0.00578636755781
O            0.87021556254504        2.56526748857655       -0.05382566996207
N           -1.04104439099226        1.27593553678922        0.03278084812646
C           -1.97755642652290        2.33748581549572        0.01559898660769
C           -4.33790689361313        0.13584722869614       -0.48082086001783
O           -4.26467079353616       -0.96040001302118       -0.23640438481436
N           -0.77192992439518       -1.44918822171485       -0.02917295395440
C           -1.27988832937180       -2.78082860282563       -0.02862719828880
H            3.79989366627157        1.20535660276553        1.07336796139618
H            4.08659968683634        1.03646760578196       -0.67046399100148
H            2.77644233870060        2.09678679321526       -0.07259165274385
H            3.71917143549695       -1.57400663535011        0.06411271170760
H           -1.49402704376422        3.31817258579344       -0.06386247511291
H           -2.64789611849634        2.20696899858754       -0.84597930862087
H           -2.58664356976826        2.29155252270515        0.92811067604043
H           -0.97008164572365       -3.35683878494424        0.85399035606898
H           -0.97730384785209       -3.33894908327959       -0.92327797627659
H           -2.36846935507638       -2.69089138458964       -0.02227235359106
H            1.59179265601631       -2.97880004410552        0.00386279658896
