25
 energy: 82.828808917013 xtb: 6.6.1 (8d0f1dd)
C            3.27952532241062        1.14951242001271        0.10918742282913
N            2.31308376440233        0.07916191693137        0.06045128858626
C            2.62417590811564       -1.19713686954732        0.07551702620754
N            1.51574232642368       -1.97222570292868        0.02594808807966
C            0.36739890040460       -1.15616487870737       -0.02133465831403
C            0.91098122720633        0.16841383435324        0.00241775818032
C            0.27753296992521        1.35897698948809       -0.04074378022724
O            0.68048446788020        2.50504660891154       -0.02267460739921
N           -1.88437741644058        0.97061630390208       -0.13976939693096
C           -2.16260718612298        2.39547476416094        0.00946383533584
C           -2.89277055158510        0.25997041945540       -0.26464305358762
O           -3.74165968910106       -0.54909724933601       -0.34672213752761
N           -0.86672466558278       -1.43281923489297       -0.05284203079575
C           -1.29420173048356       -2.78962850467300       -0.03742482932762
H            3.77406255916753        1.18020287166353        1.08481976541472
H            4.05584427538372        1.02539494769689       -0.65865618079991
H            2.78546527551388        2.10537070943538       -0.04689367345739
H            3.63182018466417       -1.54652440617957        0.09295687149908
H           -1.37673447829434        3.11868699479346       -0.20289048963171
H           -2.94202660382824        2.54834443555833       -0.71933027561005
H           -2.45001465482291        2.54744669847508        1.03919068986848
H           -0.89354936219575       -3.27327012868294        0.85316366103146
H           -0.93414569609136       -3.29867969781162       -0.92950626605367
H           -2.38879286688456       -2.85356698615499       -0.01918896597624
H            1.55927969060913       -2.97102307394341        0.00739410083801
