25
 energy: 115.888667788134 xtb: 6.6.1 (8d0f1dd)
C            3.30222567993485        1.17641481894121        0.08646116262997
N            2.33675053986395        0.08965150977538        0.05089133589006
C            2.68567142224079       -1.18670478636313        0.06397191378049
N            1.59956055563938       -1.97878811747810        0.02867584029291
C            0.43431518010382       -1.16765201697752        0.00178703990293
C            0.95136887508938        0.16170863613456        0.01687910465104
C            0.12460057770229        1.36438875189343       -0.00720007703264
O            0.67005580822417        2.48000377073921       -0.02189029410058
N           -1.28814514237548        1.13051608758299        0.06194230054475
C           -2.04925080276498        2.33385560068159        0.02662329918416
C           -3.73830656437422        0.44094772927275       -0.41554298750696
O           -4.13954084371983       -0.60240360036553       -0.22880663723753
N           -0.78084177931955       -1.52201629487208       -0.03567540092569
C           -1.24812249442838       -2.85880991978672       -0.03666012666706
H            3.80785538061504        1.25270064943485        1.05356717451169
H            4.08304047639928        1.07871931365214       -0.68158601071550
H            2.76462994873045        2.10863609660930       -0.07645098579220
H            3.69668662929570       -1.54813405120038        0.08955317401708
H           -1.44669528980634        3.23702080950786        0.00294511721186
H           -2.65485688586114        2.27505241567663       -0.87426251782581
H           -2.70869779320706        2.30663809349626        0.89555271024234
H           -0.89446794215764       -3.38143273668650        0.85145368534972
H           -0.92042138868347       -3.37245629924405       -0.94332913737593
H           -2.32924997908630       -2.85061465610358       -0.01630421920329
H            1.64078998163160       -2.98123919214844        0.00570415459589
