25
 energy: 118.736372325997 xtb: 6.6.1 (8d0f1dd)
C            3.29596514692431        1.17494239192077        0.09283880082122
N            2.32385142385188        0.09724152284056        0.05255501445159
C            2.67082250931203       -1.17855385613199        0.06596614725716
N            1.58805912090343       -1.97259356088973        0.02763828247849
C            0.42912620219587       -1.15623163831051       -0.00706969467961
C            0.93832883759042        0.17226874317629        0.01381455097412
C            0.12264263961502        1.37121521225599       -0.01059927308959
O            0.65534135322425        2.48576297273937       -0.02168901930979
N           -1.31847047629797        1.14527675609186        0.04234362473651
C           -2.04465928986927        2.37525327513041        0.02676262623136
C           -3.55960674920992        0.39462472806120       -0.37217092843927
O           -4.04558231612265       -0.63147248446701       -0.29424008244474
N           -0.78377175483459       -1.50274542939571       -0.03520559240923
C           -1.23465916705756       -2.84504257522176       -0.03466633503098
H            3.79986689170380        1.23328068076402        1.06109673482910
H            4.07664836467035        1.07524863484810       -0.67726963897475
H            2.76611648582007        2.11195193608135       -0.06497180908584
H            3.67940518179703       -1.54455845877654        0.09249087970066
H           -1.41037363222768        3.24959688772285       -0.05200495340772
H           -2.71636137643138        2.34238803786550       -0.82762317434753
H           -2.63226991084606        2.38605545325295        0.94600882089677
H           -0.86466595457459       -3.36031748769692        0.85079480542327
H           -0.89714858757586       -3.35457519723380       -0.93927777465550
H           -2.31742871080976       -2.88242627098590       -0.00868408720554
H            1.63822545429281       -2.97390296942461        0.00719166157374
