72
 energy: -99.293410739258 gnorm: 0.003282938634 xtb: 6.6.1 (8d0f1dd)
N           -2.09392685739084        2.93458631767889        2.31875568738994
C           -1.97562187082303        2.23996138569671        1.28789775500063
C           -3.07795032881096        1.98264656528078        0.29770308882606
C           -3.50121584013907        0.52368862209207        0.37204217672263
C           -4.33188969984228       -0.00883136681886       -0.61619426893673
C           -4.76025515159627       -1.32487806655020       -0.56968506454964
O           -5.56071381518282       -1.91685459931517       -1.48032658406359
C           -6.08943931993346       -1.15027478111333       -2.53652998965024
C           -4.34729744948448       -2.15794947246445        0.50515147796355
O           -4.80968423883719       -3.42387479533559        0.46793940963375
C           -4.52090608081313       -4.29037239498563        1.54011223839369
C           -3.52701830497863       -1.62202539951598        1.48481245693598
C           -3.10983860871104       -0.29827644859017        1.41744741117491
C           -2.47450636450781        2.29600113007923       -1.09618634640476
C           -1.49083000165351        1.23400973874848       -1.62085951730097
C           -0.17272233441753        1.24710954654674       -0.94753628713184
N            0.48247970076491        0.17669289663242       -0.51101540557393
C            1.88461334073780        0.25591137112633       -0.18371352855531
C            2.75613270719772       -0.35365970461912       -1.30600301962981
C            4.20512707415935       -0.10881281010265       -1.04263215921774
C            4.82768557065657        1.07645177522670       -1.38167284205573
C            6.12756089832694        1.32943946752411       -1.35602086980341
C            7.08841950997520        0.16508476445260       -1.14415710014755
O            8.28725667310986        0.57075841132817       -0.55756383746461
C            8.18902442252745        1.09927375684663        0.74742936821245
C            6.37190075079073       -0.95660958942586       -0.38623631215834
O            7.24452170571639       -1.82596305203271        0.13053314176848
C            6.78020244874615       -2.98766286533868        0.78465125250382
C            5.00924953086125       -1.05509808176467       -0.35208413714678
C           -0.12690412518533       -1.13097075850180       -0.46694595537690
C           -4.34090935328255        2.86353143324657        0.53736434850337
C           -5.02539792640097        2.51608693559810        1.85721945558396
C           -4.04616587389621        4.36006789429868        0.48950556131650
H           -4.66001767160532        0.62092065529111       -1.42627295082987
H           -6.68709319434756       -0.31263058601887       -2.16477226936725
H           -6.73034032909344       -1.82853227593881       -3.09633774016634
H           -5.30021393830530       -0.77425653746970       -3.19592245921441
H           -4.90187012544576       -3.89667038787327        2.48701450243036
H           -5.02981199205364       -5.22341470806230        1.30641125931417
H           -3.44572538468554       -4.47692812454843        1.62782097239441
H           -3.21248788626365       -2.22498715353606        2.32103680024320
H           -2.49481762619601        0.09170166228681        2.21366081753718
H           -3.28623561705891        2.38951211078228       -1.81664375303580
H           -1.96492533105184        3.25914017465646       -1.04953842861342
H           -1.95534767719563        0.25058330971197       -1.57923551321112
H           -1.30943725354340        1.47384407624746       -2.67687038339547
H           -1.02476011157481        1.77068538307469        0.96715812566045
H            0.37586768902506        2.17772214685195       -0.94920172504660
H            2.06946411665519       -0.27648802325787        0.75347444563702
H            2.16884092664551        1.30141828023212       -0.05042070491216
H            2.48016326574404        0.12438363604679       -2.24835899902680
H            2.56190828765844       -1.42419610973028       -1.38117856840639
H            7.39811617052949       -0.25472289131904       -2.11598034445069
H            6.57310315578132        2.30140157777162       -1.48281780053291
H            7.74269598700278        0.38135222386763        1.44277542457661
H            7.59927971469943        2.02243982841408        0.76351001045806
H            9.20924993679708        1.31492809057267        1.05764383022509
H            7.67353588862606       -3.52607049325380        1.09480028953126
H            6.18185563855449       -2.73489610162429        1.66488699408411
H            6.19263298632134       -3.61425713972490        0.10805304379391
H            4.52641373881671       -1.89414953682692        0.12618602994250
H           -0.22927001466684       -1.55797213634516       -1.46734922630219
H           -1.11504223265299       -1.07431149899618       -0.00553001823622
H            0.49458503406602       -1.79378388054165        0.13067939935423
H           -5.03862880564088        2.62866313710663       -0.27485665210968
H           -4.36580346908814        2.74136809347414        2.68896067334356
H           -5.29685767896174        1.46398326648820        1.89551809476922
H           -5.93140701580318        3.10684147768906        1.96327525397283
H           -3.33976701973737        4.63030632361618        1.26835021288274
H           -3.65159040097824        4.66682697470281       -0.47547802452619
H           -4.96757558600006        4.91002680648583        0.66193869836459
H           -1.27315136566154        3.06517004627569        2.90167392072610
