  72
        -99.32796735
 N         -1.6410205977        2.4802304533        2.3264479030
 C         -1.9356511597        1.7135383221        1.3824023204
 C         -3.0510005654        1.9737198609        0.4050603447
 C         -3.8895450199        0.7104887755        0.2667715926
 C         -4.7769261742        0.6108544177       -0.8822346930
 C         -3.7913580017       -2.4399382711       -0.8370074094
 O         -2.9658684108       -1.5988396659       -1.1739580644
 C         -6.0366929162        0.1876072996       -0.8189771827
 C         -4.5996113780       -2.4310695285        0.3614747220
 O         -5.3120785563       -3.5834358384        0.4585207388
 C         -6.2009492156       -3.7624640492        1.5354701473
 C         -4.5578667955       -1.4652198829        1.3354665316
 C         -3.9033985181       -0.1957260092        1.2781269519
 C         -2.3569721076        2.3454669926       -0.9319985632
 C         -1.5745645516        1.1925757590       -1.5686742949
 C         -0.2322922710        1.0154525210       -0.9845744461
 N          0.4985231457       -0.0686211608       -1.1140166908
 C          1.8437851356       -0.1297964211       -0.5923992167
 C          2.8954658579       -0.1008609319       -1.7169811873
 C          4.2771716494       -0.0500671531       -1.1266989623
 C          4.9776158042        1.1426875879       -1.0586600902
 C          6.2463607739        1.1900105461       -0.5016649080
 C          6.8366680175        0.0432841920        0.0099055232
 O          8.0584435269       -0.0287744850        0.5674129437
 C          8.8588978412        1.1298973850        0.6222540433
 C          6.1194959860       -1.1850696546       -0.0439412424
 O          6.7625387111       -2.2466862501        0.4797247376
 C          6.1417643969       -3.5099276703        0.4583958106
 C          4.8556459841       -1.2085215701       -0.6116803533
 C          0.0453171195       -1.2083631929       -1.8725586494
 C         -4.0132782366        3.1308303996        0.8189369879
 C         -4.6859048326        2.8582273059        2.1621665479
 C         -3.3347318137        4.4982218837        0.8662499686
 H         -4.3990928556        0.9618452515       -1.8317711046
 H         -6.4897399685       -0.1177999069        0.1091724048
 H         -3.9329660021       -3.3472410874       -1.4408799814
 H         -6.6627561268        0.1514519083       -1.6931270876
 H         -6.8960972179       -2.9226664587        1.6250325942
 H         -6.7548211749       -4.6719403359        1.3101470126
 H         -5.6632727885       -3.8947666735        2.4797598741
 H         -4.9809926433       -1.7060595884        2.3036744242
 H         -3.4038216033        0.0795238688        2.2022145216
 H         -3.1203680653        2.6927215626       -1.6274255962
 H         -1.6818933997        3.1817292392       -0.7469434753
 H         -2.1483858513        0.2650904704       -1.4950995970
 H         -1.4570401590        1.3958701406       -2.6411813303
 H         -1.3797237907        0.7900885760        1.1457892443
 H          0.2151078997        1.8427924189       -0.4518598389
 H          1.9583584040       -1.0499265958       -0.0121201102
 H          2.0140206534        0.7185861926        0.0735760474
 H          2.7262580834        0.7804025018       -2.3375097949
 H          2.7910888127       -0.9888704610       -2.3417172313
 H          4.5431790728        2.0480751266       -1.4540741849
 H          6.7708550854        2.1308030354       -0.4733570477
 H          8.3960144762        1.9080171253        1.2367470713
 H          9.0595075443        1.5245839884       -0.3781707342
 H          9.7944965227        0.8167733391        1.0814253755
 H          6.8534851612       -4.1928869008        0.9180070069
 H          5.2139794664       -3.5106324362        1.0396528686
 H          5.9344499260       -3.8385895043       -0.5646227293
 H          4.3110675414       -2.1378281399       -0.6724420231
 H          0.0825190129       -0.9986414871       -2.9434172546
 H         -0.9849872104       -1.4615699644       -1.6153680951
 H          0.6803440749       -2.0638543165       -1.6581387855
 H         -4.7952446272        3.1588800849        0.0494751552
 H         -3.9428916977        2.8283021801        2.9537244342
 H         -5.2338620368        1.9197652690        2.1482704197
 H         -5.3897660370        3.6559606397        2.3837502040
 H         -2.4845141419        4.4701391379        1.5405768694
 H         -3.0100886987        4.8287990732       -0.1163113974
 H         -4.0435073250        5.2319412622        1.2411803654
 H         -0.8517465224        2.2258112004        2.9126440187
