25
 energy: 0.000000000000 xtb: 6.6.1 (8d0f1dd)
C            3.23720163006194        1.16630919979326        0.08434469647475
N            2.29877817382611        0.07527477071623        0.03981603040599
C            2.58028210190900       -1.21425402444508        0.03006176031096
N            1.43813958087363       -1.93419271955128        0.00098261760884
C            0.39035688448383       -1.05887472636071       -0.00790371836672
C            0.93510056364412        0.21347819449412        0.01709077491437
C            0.09450143893243        1.40504303904423       -0.00410947031874
O            0.49712751527797        2.54126714362870       -0.00342325688240
N           -1.25076640035757        1.06271879480407       -0.03085478223738
C           -2.21907211982101        2.15522099834493       -0.05001256985998
C           -1.81739487048744       -0.20012725993278       -0.04692818574614
O           -2.99983886758376       -0.37846417018721       -0.07008878229737
N           -0.92618586207120       -1.30210215599479       -0.03682761578324
C           -1.46982264913417       -2.64643102187190       -0.06029820460571
H            3.71247264356769        1.21471455160235        1.06488849150277
H            4.00791497605742        1.03430808813993       -0.67357694370751
H            2.69910007168542        2.09770118228144       -0.09130154882931
H            3.56654120610678       -1.63682992603973        0.04233140067262
H           -1.67107961066214        3.09322851271934       -0.02552706933167
H           -2.82428953597071        2.09428624779827       -0.95318082946668
H           -2.87644029173232        2.07745725625962        0.81450067533302
H           -1.17061996399332       -3.19584890659852        0.83242232437030
H           -1.14560257411436       -3.17511610292205       -0.95688275822323
H           -2.55549792440841       -2.55659984320617       -0.07459039797972
H            1.38130855184625       -2.94313852034425       -0.01389874181052
25
 energy: -3.052478630298 xtb: 6.6.1 (8d0f1dd)
C            3.23338529174677        1.17499503413305        0.07596232330430
N            2.30253489832593        0.08932856139204        0.03340532741071
C            2.59876700432137       -1.23691979645376        0.03098255815549
N            1.42976304745275       -1.94901179785797        0.00530422318432
C            0.39520210824990       -1.06771757562994       -0.00707260645787
C            0.92524733128277        0.21220173051711        0.01309379632867
C            0.09923606910092        1.38691164836811       -0.00502911230637
O            0.49746135036254        2.55136987095708       -0.00828568954298
N           -1.26270784928428        1.05310894775478       -0.03117308132218
C           -2.19428247918192        2.18667076866878       -0.03641729716677
C           -1.82498234926639       -0.20763498914049       -0.05270980304540
O           -3.02070478069927       -0.39753128862713       -0.07218209017893
N           -0.93489363339315       -1.31327970592089       -0.03624605990046
C           -1.46115649151120       -2.66313556787249       -0.05364086451249
H            3.71032545324558        1.22820568017699        1.05798679120841
H            4.00180187088854        1.03840303557193       -0.68611324118305
H            2.68273479838205        2.09629620451847       -0.10539081180699
H            3.57880688203986       -1.65791267548859        0.04451856295561
H           -1.69974837473798        3.18376425135016        0.04040164059818
H           -2.75063354336603        2.19184962936089       -0.94850119458049
H           -2.93550455037120        2.03947341268586        0.74866125574285
H           -1.15556646865978       -3.21010018407830        0.84111269580636
H           -1.12418089168407       -3.19856621229852       -0.94419657289812
H           -2.54729427470985       -2.58848072901001       -0.07225286534376
H            1.36860424940235       -2.95325965090516       -0.00518398830174
25
 energy: 2.451036299295 xtb: 6.6.1 (8d0f1dd)
C            3.22317244474502        1.18001325019062        0.05834473177615
N            2.30125752811117        0.09737274619287        0.02072878274066
C            2.61298908687086       -1.26222160270429        0.03287572313535
N            1.41741930533644       -1.96320477243422        0.01289613115302
C            0.39828321200458       -1.08058994721417       -0.00418867103634
C            0.91085353815899        0.20640483875900        0.00620316426774
C            0.10437138769572        1.35895319751306       -0.00856322943693
O            0.48888226228820        2.54364910315551       -0.02122216277301
N           -1.28154371278259        1.04824158490591       -0.02669492086735
C           -2.16673494094950        2.23211147917962       -0.01458378022479
C           -1.83305354573583       -0.21300676669250       -0.05255532118826
O           -3.03485716531770       -0.42374431266255       -0.07253022593620
N           -0.94621018922179       -1.32423284617317       -0.03263989780965
C           -1.44459874559850       -2.68564681538409       -0.04169921847795
H            3.70397770295773        1.24865649438546        1.04002789672053
H            3.99110961793267        1.04458560577819       -0.70669274357274
H            2.65836371249225        2.09118529342889       -0.13048285158624
H            3.58736405932051       -1.67855366917915        0.04779741863419
H           -1.73238103366153        3.29229022607646        0.18571323106547
H           -2.61315832219339        2.37356359757327       -0.98019832445275
H           -3.04136592216387        1.96939754319331        0.63721424401304
H           -1.12996869099630       -3.22703329670238        0.85692929215624
H           -1.08727420741879       -3.23158071035011       -0.92191599657370
H           -2.53207015188117       -2.64263288569865       -0.06773530249835
H            1.35738743794307       -2.96494873296498        0.01000592691917
25
 energy: 11.308321696484 xtb: 6.6.1 (8d0f1dd)
C            3.20881078616601        1.18134188163148        0.03942706407613
N            2.29542196896270        0.09526686569188        0.00827094609582
C            2.61674756191341       -1.28118627650610        0.03373219817674
N            1.40929627289003       -1.97528644850378        0.01919589976548
C            0.39741704270341       -1.09536449317287       -0.00049262770821
C            0.89833820026391        0.19651223495178       -0.00003018885597
C            0.10153132130050        1.33903224703691       -0.01330563634612
O            0.47278565122855        2.53193444952787       -0.03616857197205
N           -1.30337029923952        1.04899737081243       -0.01183709024033
C           -2.15298103208923        2.27047514919643        0.00792504869185
C           -1.84306685267535       -0.21830205329633       -0.04118933848981
O           -3.04385600730632       -0.45161630160418       -0.06649950357858
N           -0.95484265430773       -1.33370452883519       -0.02685265139322
C           -1.42606636572963       -2.70724894547710       -0.03116167110193
H            3.69230669227438        1.26688634686901        1.01979177176575
H            3.97767104863342        1.05080984426374       -0.72641680710919
H            2.63352689641711        2.08570720779464       -0.15577657245806
H            3.59073054298207       -1.69216486289488        0.04910270548368
H           -1.76078622434106        3.36439279350172        0.33784755177161
H           -2.45256367868640        2.56431630873039       -1.01346435613327
H           -3.13604802984408        1.92362045830721        0.50743390775298
H           -1.10325060229395       -3.24057737063229        0.87180942905297
H           -1.04695907660120       -3.25785229516696       -0.90220922537295
H           -2.51444891972253       -2.69940485946909       -0.06593470807976
H            1.35587042503777       -2.97755612058487        0.02383632235372
25
 energy: 16.605751628448 xtb: 6.6.1 (8d0f1dd)
C            3.19337543962209        1.17923493071724        0.02771788271371
N            2.28720792956992        0.08544594433911        0.00050279560368
C            2.61150429102400       -1.29160249006557        0.03412039401131
N            1.40553425839045       -1.98350040948058        0.02220373768454
C            0.39307045430065       -1.10842317319412        0.00223051122058
C            0.88963984993511        0.18523411514727       -0.00465837614313
C            0.09372085644668        1.32898710519532       -0.02044998621797
O            0.45479395206251        2.51850269940913       -0.05152491698045
N           -1.32262492958984        1.05498248733680        0.00974271918881
C           -2.14975320673703        2.29902646797213        0.02206940047502
C           -1.85315623199026       -0.22176132419857       -0.02110698269018
O           -3.04727005536546       -0.47489775272178       -0.05490828429406
N           -0.96035920329362       -1.34001697045219       -0.02180243048811
C           -1.40955593591113       -2.72426102233594       -0.02837690986491
H            3.67652766386270        1.27823933610822        1.00699793553797
H            3.96463791985611        1.05599686796436       -0.73663748470324
H            2.61153009941032        2.07983423148512       -0.17153633921648
H            3.58880678699535       -1.69785921682538        0.04950191047231
H           -1.79640886922974        3.40650274932776        0.42413934834531
H           -2.32167403262588        2.68662640652581       -0.99525246675129
H           -3.16918998379495        1.93287808408125        0.39080773821322
H           -1.08225049823739       -3.25123881823603        0.87764321906091
H           -1.00991368305703       -3.27207270526068       -0.89326341165698
H           -2.49753847247825       -2.74865750458830       -0.07309653470052
H            1.36156026877098       -2.98817143607852        0.03197042732724
25
 energy: 17.758053772869 xtb: 6.6.1 (8d0f1dd)
C            3.18030302955689        1.17438950715407        0.01891555825908
N            2.27887114454292        0.07047468862743       -0.00510367868763
C            2.59780149384177       -1.28906274061085        0.03110813489486
N            1.40742157187823       -1.98547079022540        0.02271415125572
C            0.38522756794827       -1.11688051782199        0.00425872763595
C            0.88641120544511        0.17554780881078       -0.00605516184563
C            0.08239916382630        1.33050097670830       -0.02128300510628
O            0.43698777732423        2.50771775375694       -0.06509389989838
N           -1.33522912363167        1.06319313763719        0.04125292653154
C           -2.16136304348000        2.30997020272065        0.02991416321156
C           -1.86343678545779       -0.22339365302048       -0.00078027267233
O           -3.04685796426116       -0.49031579680837       -0.03837277357179
N           -0.96214061641457       -1.34206034993120       -0.01692758657456
C           -1.40040627730714       -2.73247967288658       -0.02733599455139
H            3.66087579323293        1.27987885578487        0.99711415769467
H            3.95328356772134        1.05665142180908       -0.74325962901025
H            2.59687225562904        2.07412105295727       -0.18185101526362
H            3.58125179866020       -1.69203021639592        0.04368284550019
H           -1.84726356697940        3.40951230468320        0.48740909668967
H           -2.17814110285363        2.74638216459467       -0.94645441048562
H           -3.17089081463330        1.95813458812205        0.25770566574244
H           -1.07332572830075       -3.25402618139686        0.88109147607490
H           -0.98647569804370       -3.27057552747253       -0.88970420735711
H           -2.48487259510428       -2.77779743254627       -0.08086643995184
H            1.37491161479642       -2.99335298207826        0.03495506763308
25
 energy: 20.640366748746 xtb: 6.6.1 (8d0f1dd)
C            3.17305856312264        1.17248371693893        0.00318722835288
N            2.27381095262872        0.06401719736890       -0.01551362302012
C            2.58750923116559       -1.27878062632709        0.02039812430611
N            1.41095497196492       -1.98388026572950        0.02095190204185
C            0.37846587021261       -1.11973725900445        0.00965411789117
C            0.88438978203785        0.17215770082003       -0.00168923926382
C            0.07257779791048        1.33217510099183       -0.00181011816511
O            0.42312355970577        2.50612377586844       -0.07425546772574
N           -1.33969938920196        1.06000276645738        0.09326329252001
C           -2.17066561212889        2.30576950623519        0.04223820494019
C           -1.87311592818890       -0.22814036610860        0.02465146339991
O           -3.05138798275510       -0.50052133463552       -0.01276516148485
N           -0.96302759921100       -1.34417043724645       -0.00525400220544
C           -1.40051200208364       -2.73478155283141       -0.01900380641238
H            3.65317908704539        1.27619699222622        0.98022633772389
H            3.94360599590701        1.05249348091778       -0.76015411723833
H            2.58945628361562        2.07109774686596       -0.19740985912858
H            3.57437061240349       -1.67938042933668        0.02449107162619
H           -1.90306116590509        3.39049041886995        0.60216846739356
H           -1.95265589034631        2.81704381331251       -0.94117824029785
H           -3.24949598986811        1.93178489915992        0.07030339815458
H           -1.07344859943794       -3.25331126267823        0.89008713687898
H           -0.98127668244653       -3.26230321963134       -0.88259521297015
H           -2.48121054027839       -2.78535279718616       -0.07557446449068
H            1.38726934206803       -2.99244896314586        0.03261646332099
25
 energy: 17.004319496781 xtb: 6.6.1 (8d0f1dd)
C            3.17490419708306        1.17360281623623        0.00497138756135
N            2.27292300943126        0.06708075274543       -0.01554066360910
C            2.58333585606867       -1.26613463254824        0.01719854783277
N            1.41247664788178       -1.97814341195385        0.01919947107390
C            0.37541118987998       -1.11347560661256        0.01281245691481
C            0.88489038485175        0.17709675560261        0.00357608749933
C            0.06939925815039        1.33483963980789        0.00764274525615
O            0.42456544943097        2.50943108593911       -0.07847589281135
N           -1.33232627064405        1.05233635873678        0.10980730291955
C           -2.16955178362719        2.29331032173967        0.03102091061838
C           -1.87460418930611       -0.22965609535123        0.03434472763506
O           -3.05409470966941       -0.49292148858378       -0.00566323537558
N           -0.96245254238391       -1.34298778821357       -0.00040379798316
C           -1.40787679906341       -2.73008067710741       -0.02098954192990
H            3.65406405795389        1.27023302883784        0.98296468558787
H            3.94465536487958        1.04945126089507       -0.75825233565445
H            2.59372084056190        2.07316222599773       -0.19414846185049
H            3.56954465870562       -1.66924515453073        0.01671677439705
H           -1.92968277365454        3.35820814022168        0.58667751006015
H           -1.92310297790534        2.78026582517155       -0.90092412069386
H           -3.21743140684481        1.93518062700651        0.02813604607018
H           -1.08289932483850       -3.25270395995163        0.88557010896548
H           -0.99172209807786       -3.25364493432472       -0.88777863158524
H           -2.48918109466314       -2.77053027439067       -0.07708722422677
H            1.38724972373568       -2.98564621319794        0.02565903947511
25
 energy: 16.085879523553 xtb: 6.6.1 (8d0f1dd)
C            3.17478268523463        1.17773536006973        0.00235702317710
N            2.27043459637865        0.07399266923266       -0.01917294454610
C            2.58265255520538       -1.25791272047555        0.01217443419521
N            1.41224479921970       -1.97518897635701        0.01750467177566
C            0.37368028230664       -1.10947901565747        0.01774913834949
C            0.88124007950071        0.18174862171410        0.00855889321721
C            0.06120818481421        1.33221505771998        0.01755963823378
O            0.41845040704469        2.51012999652745       -0.08076382371906
N           -1.33310095339464        1.04138350930123        0.13782496463793
C           -2.16960351348458        2.28483239093184        0.02209680377008
C           -1.87788127795329       -0.23457721386847        0.04900716695213
O           -3.05988353174138       -0.49289046347970        0.00663906253258
N           -0.96362297479587       -1.34529691811895        0.00838620218610
C           -1.41293007796201       -2.73034073265526       -0.01911826350285
H            3.65561333101466        1.26993258015952        0.98063423980757
H            3.94366758670783        1.04949824356547       -0.76139147730311
H            2.59507047925751        2.07787027456659       -0.19588883165960
H            3.56751610670774       -1.66333108084528        0.00457165236741
H           -1.98425357067840        3.33058548435567        0.60983032110517
H           -1.82403444276556        2.79099022394348       -0.86984110302257
H           -3.19759994746622        1.93095080310801       -0.06092833043292
H           -1.08928649555863       -3.25904606654089        0.88431283481163
H           -1.00086128149051       -3.25228708113748       -0.88922511271924
H           -2.49599078510746       -2.76104921348512       -0.07404427849537
H            1.38470242694246       -2.98143713040278        0.01820101442902
25
 energy: 16.406624534624 xtb: 6.6.1 (8d0f1dd)
C            3.17664856478438        1.18118020162632       -0.00024266828148
N            2.26980425212570        0.08088117472387       -0.02255833455620
C            2.58668234701504       -1.25821166989799        0.00775430443472
N            1.41079172435477       -1.97515152305769        0.01548863606349
C            0.37583972831955       -1.10682749777975        0.02068708237622
C            0.87910766913934        0.18501397820210        0.01208209272246
C            0.05775370581190        1.32952125775429        0.02561966435899
O            0.41892800269964        2.50906060167615       -0.06938399243839
N           -1.33394257779684        1.03733890619844        0.15930307087934
C           -2.16440783220010        2.28576369472471        0.01391366119417
C           -1.87545670556316       -0.23512623230222        0.05675676252027
O           -3.06067267122175       -0.48915650825691        0.01345951256267
N           -0.96385670631434       -1.34629616548954        0.01531463674498
C           -1.41609609737995       -2.72954234250618       -0.01597362088201
H            3.66079739900337        1.27199015982267        0.97749347394603
H            3.94456352827609        1.05142660858376       -0.76529149538649
H            2.59824412756335        2.08263421269785       -0.19712032220953
H            3.56919765892884       -1.66626114893966       -0.00636939337943
H           -2.04352449480222        3.31814474934529        0.62508045735996
H           -1.75003984042672        2.79221681389795       -0.83103110568013
H           -3.19985766070305        1.92003724569806       -0.14735685016611
H           -1.09268866600672       -3.26513805823680        0.88404314755816
H           -1.01203423485342       -3.25368818101866       -0.88951103295416
H           -2.50150032969881       -2.75022202938480       -0.06661268664716
H            1.37793377688139       -2.98055964590953        0.01148889600687
25
 energy: 15.460450589398 xtb: 6.6.1 (8d0f1dd)
C            3.17758429426762        1.18357116044255       -0.00035415059939
N            2.26915141508590        0.08535025904753       -0.02290069650300
C            2.59058190646086       -1.26073574668967        0.00686078163978
N            1.41012085349011       -1.97562934111254        0.01464198897362
C            0.37810270112993       -1.10677168325712        0.02035006625496
C            0.87730942156153        0.18571594465803        0.01288419980580
C            0.05373406248495        1.32786278537764        0.02827562329474
O            0.41709691297700        2.50845713633882       -0.05565750872693
N           -1.33952553101540        1.03536700286515        0.15938065073816
C           -2.16855599719544        2.28380531870404        0.00821440590675
C           -1.87408107643872       -0.23771113181139        0.05309135295172
O           -3.06109164497453       -0.49092698896697        0.00899734573673
N           -0.96376383440413       -1.34807934462887        0.01650954770402
C           -1.41686977191466       -2.72999562264920       -0.01351511088969
H            3.66395703345071        1.27453441085890        0.97668462639321
H            3.94491612731764        1.05403540147153       -0.76646143529691
H            2.60047460783409        2.08631540349468       -0.19619275075372
H            3.57201414452054       -1.66894409986280       -0.00950572603138
H           -2.06752718307553        3.30287619255926        0.62149315643857
H           -1.73048041952182        2.80603871772170       -0.82628776857262
H           -3.18064628304990        1.92371957473574       -0.15583711479014
H           -1.09200326745719       -3.26747744054628        0.88518782290571
H           -1.01914684621765       -3.25651679825059       -0.88909085928841
H           -2.50329160637066       -2.74496682235617       -0.05940236945666
H            1.37415464899104       -2.98086568597225        0.00966781831232
25
 energy: 15.306632879976 xtb: 6.6.1 (8d0f1dd)
C            3.17774181406097        1.18212384743380       -0.00117932050304
N            2.26923935671558        0.08356596951013       -0.02268752464529
C            2.58998019422258       -1.26139316941357        0.00654894745566
N            1.41050902602921       -1.97555997367375        0.01399521495365
C            0.37802316390829       -1.10749958900595        0.02010347147168
C            0.87830818808201        0.18447420070768        0.01344662225660
C            0.05499716142751        1.32928706479779        0.03110654563799
O            0.41871317413089        2.50890504140616       -0.05191059602509
N           -1.33946289945460        1.03793527113021        0.15742640016149
C           -2.16918319884703        2.28474173560491        0.00679356613803
C           -1.87348760897662       -0.23704384005350        0.05284452449055
O           -3.05971025540726       -0.49071729900282        0.00608942671165
N           -0.96340527035084       -1.34727478046884        0.01660308792393
C           -1.41661438640393       -2.72910749190460       -0.01266431096595
H            3.66427825832596        1.27324617494008        0.97537576726603
H            3.94435443612272        1.05316604619536       -0.76794867517120
H            2.60092725945738        2.08522840693720       -0.19638827628237
H            3.57202606502117       -1.66849136289313       -0.00995631678983
H           -2.06788564206276        3.30225265021082        0.62581184406834
H           -1.73282132972772        2.80633752179292       -0.82741515568425
H           -3.18773352947486        1.92227222425934       -0.15929875537595
H           -1.09028421731378       -3.26515151988487        0.88609177572771
H           -1.01911968400553       -3.25497008866025       -0.88845106562936
H           -2.50257341882127       -2.74613719606253       -0.05730702022365
H            1.37539801127820       -2.98116124173080        0.01000371917991
25
 energy: 14.942832636518 xtb: 6.6.1 (8d0f1dd)
C            3.17790477868090        1.18105903128929       -0.00158787694586
N            2.26904448084289        0.08264123833233       -0.02184845809169
C            2.58982143214753       -1.26243406652422        0.00665862058631
N            1.41056758505094       -1.97548749589160        0.01311257861865
C            0.37802113051204       -1.10813802232056        0.01976866457150
C            0.87887567916747        0.18346455318110        0.01391649836044
C            0.05627689259552        1.33022699444133        0.03327182779074
O            0.42059240126217        2.50922939941770       -0.04618613893263
N           -1.34011395877487        1.04016552583264        0.15234247011290
C           -2.16912889014153        2.28584397064324        0.00402104839330
C           -1.87286681987830       -0.23684612156870        0.05095299490019
O           -3.05876443793220       -0.49044084327086        0.00198766760170
N           -0.96339940106097       -1.34651661663565        0.01669491133962
C           -1.41625257714094       -2.72848399301297       -0.01155382395482
H            3.66509462707376        1.27238356385103        0.97436242730630
H            3.94356313860747        1.05243030953811       -0.76928155379294
H            2.60137693356049        2.08463300758675       -0.19608363888096
H            3.57249822499329       -1.66793545105899       -0.00995718862132
H           -2.06754590049119        3.29766988167250        0.62725770558704
H           -1.73980226415887        2.80931005722984       -0.82824960650479
H           -3.19044305157997        1.92264581545639       -0.15766398577741
H           -1.08770360402231       -3.26332570311270        0.88693114138858
H           -1.01947130809425       -3.25403557983145       -0.88784941592209
H           -2.50205367745815       -2.74761295788184       -0.05445487399367
H            1.37612325417536       -2.98141789519091        0.01047190100815
25
 energy: 14.451791888112 xtb: 6.6.1 (8d0f1dd)
C            3.17788594527559        1.18053451801372       -0.00228053894319
N            2.26858964376045        0.08240975355254       -0.02127970394461
C            2.58944239471980       -1.26273376974089        0.00656510793599
N            1.41043021986853       -1.97526194103336        0.01222560558616
C            0.37770172486537       -1.10839694137013        0.01976864708357
C            0.87887071021459        0.18310355035414        0.01427101904021
C            0.05676263502099        1.33064991568347        0.03473237126760
O            0.42122476383121        2.50946864999015       -0.04202785257781
N           -1.34103875356587        1.04110612341552        0.14931326687971
C           -2.16929145836053        2.28578718692195        0.00166392919514
C           -1.87289471176947       -0.23721097288104        0.05001796829757
O           -3.05870021408133       -0.49048783036902        0.00023898297933
N           -0.96373058254372       -1.34600595889648        0.01733499775204
C           -1.41610962308503       -2.72823063331403       -0.01038566638407
H            3.66589451869948        1.27191063531058        0.97313629026736
H            3.94264125298567        1.05171117501049       -0.77078519558970
H            2.60156474411400        2.08443003187292       -0.19623857169346
H            3.57267770861480       -1.66685895513818       -0.01050958836497
H           -2.07202042348020        3.29031884115042        0.63256920466954
H           -1.73505772647889        2.81539994033445       -0.82838943962455
H           -3.19172154070548        1.92331463762333       -0.16217201544067
H           -1.08581220785709       -3.26247934478231        0.88769672607275
H           -1.01996391024234       -3.25339442741867       -0.88725957689803
H           -2.50180583923555       -2.74867808080538       -0.05203353960232
H            1.37667539737130       -2.98137750131241        0.01086146818365
25
 energy: 14.245841127249 xtb: 6.6.1 (8d0f1dd)
C            3.17796414779667        1.18068893035893       -0.00210654341064
N            2.26864177600168        0.08266634157176       -0.02080113637553
C            2.58932127617300       -1.26264194681559        0.00701591545933
N            1.41016812618923       -1.97522580821758        0.01223058312429
C            0.37753318983265       -1.10813260504783        0.01975084097074
C            0.87874944147477        0.18351188166208        0.01395389942629
C            0.05714683494557        1.33049734391678        0.03339150683017
O            0.42133053031763        2.50963816685194       -0.04291260986664
N           -1.34078784643326        1.04081438480280        0.14728608010442
C           -2.16840642235524        2.28560636736886        0.00120380621594
C           -1.87304951123954       -0.23722747910817        0.04937325458144
O           -3.05911321422177       -0.49006101779066        0.00088384010536
N           -0.96401720746632       -1.34579371695751        0.01719679552490
C           -1.41608685903513       -2.72827384023981       -0.01056490248769
H            3.66611482259428        1.27217102404123        0.97332709894680
H            3.94268526659433        1.05153928060967       -0.77059121127692
H            2.60147557522290        2.08445432590588       -0.19620106481285
H            3.57259393684348       -1.66665765430269       -0.00988209135358
H           -2.07176721364135        3.28772689628011        0.63330259411902
H           -1.73703584160688        2.81593996539089       -0.82846991339097
H           -3.19036009193694        1.92391890152218       -0.15946256786005
H           -1.08591453871625       -3.26264988223686        0.88751231072474
H           -1.01967685938084       -3.25350781768642       -0.88736328845941
H           -2.50180138642161       -2.74871081232589       -0.05257581303431
H            1.37650673640523       -2.98126262738238        0.01153651234238
25
 energy: 14.027528222282 xtb: 6.6.1 (8d0f1dd)
C            3.17802068017297        1.18106529445882       -0.00189482227997
N            2.26899714182675        0.08282533836075       -0.02039478684718
C            2.58910569422548       -1.26227730862947        0.00758921722655
N            1.40993645203579       -1.97522098669376        0.01244688032607
C            0.37737441455815       -1.10771456757501        0.01967226551306
C            0.87865412169689        0.18414584515113        0.01336428619278
C            0.05731004625490        1.33019960434798        0.03126036080672
O            0.42071171812343        2.50979904374578       -0.04612128593884
N           -1.34023457033538        1.03996705026732        0.14648892863543
C           -2.16732884832116        2.28521139316596        0.00159443895664
C           -1.87343645994130       -0.23722736985181        0.04972277588204
O           -3.05974523886564       -0.48980931873563        0.00338502508870
N           -0.96423455150795       -1.34572833477205        0.01675562805272
C           -1.41612035098933       -2.72840887696662       -0.01134361678302
H            3.66605174628621        1.27280444293194        0.97370581647489
H            3.94303115748323        1.05166316941688       -0.77005424349107
H            2.60115912297128        2.08444738932956       -0.19636810041286
H            3.57226151725977       -1.66673196212891       -0.00902308831980
H           -2.07097579912529        3.28483649178638        0.63416927421284
H           -1.73743040898550        2.81637603602241       -0.82849509002475
H           -3.18961597156059        1.92499553214446       -0.15691991095186
H           -1.08687873881859       -3.26302890326536        0.88699062943674
H           -1.01890245229540       -3.25368243400955       -0.88774325608190
H           -2.50182894607302       -2.74837703531636       -0.05436316889295
H            1.37633319186061       -2.98110093101309        0.01260973936626
