25
 energy: -42.436600327607 xtb: 6.6.1 (8d0f1dd)
C            3.17865817357264        1.17155361309896        0.00085005545016
N            2.27705471118727        0.05601631892279        0.00105150496985
C            2.60776490043149       -1.27590107342447        0.02046289614875
N            1.45490018680938       -2.00688807118195        0.02375189402904
C            0.39980953740727       -1.15708590661229        0.01934464456940
C            0.88335993984317        0.15092088336536        0.01239214196835
C            0.05069148571109        1.27733777075036       -0.02309505016017
O            0.41935272906882        2.45801448502560       -0.07336732973208
N           -1.33760572208722        0.94137344296305       -0.00901169423449
C           -2.13197778579258        2.02469386279684       -0.13797011247219
C           -1.84671851075733       -0.36018407253305       -0.00572181307138
O           -3.04112690816610       -0.58903055311988       -0.02230970657583
N           -0.93172821807403       -1.42311128700149        0.01201684420319
C           -1.40256845803213       -2.78816592950144       -0.01161950469426
H            3.66332474948754        1.27090701120125        0.97534352154218
H            3.94259281398013        1.03661190656727       -0.76637940854629
H            2.59261227870291        2.06931573175344       -0.19953491600039
H            3.59707792280884       -1.68725204750070        0.02839280488887
H           -2.34940266355375        4.57679564144112        0.40841862701620
H           -1.61845558120691        2.93922781339779       -0.45232778139879
H           -3.18609857381705        1.86569546922114       -0.24902422103483
H           -1.08567989794110       -3.30839629015527        0.89444984967269
H           -1.01350007129753       -3.30987123646637       -0.88844817518367
H           -2.48842195425871       -2.78828011090794       -0.06215476491280
H            1.38630517330136       -3.01437575418821        0.02774575222921
