  25
        -42.13561824
 C          3.2679125892        0.8588727179        0.0491338203
 N          2.3225287401       -0.2517022039       -0.0025449644
 C          2.8015787645       -1.4499025729       -0.0291784063
 N          0.6399602076       -2.4213855573       -0.0103615028
 C          0.1364279870       -1.2421430201       -0.0021583884
 C          0.9497971903       -0.0464192739        0.0008917031
 C          0.3208741944        1.2509977658       -0.0103387033
 O          0.9078628672        2.3231468873       -0.0329227369
 N         -1.0717770335        1.2318148416        0.0023659797
 C         -1.7787183464        2.4979686672        0.0009081085
 C         -1.8737210241        0.1054507006        0.0088472636
 O         -3.0773955744        0.1894114147        0.0165278557
 N         -1.2253282236       -1.1147998286        0.0035589153
 C         -2.0139001941       -2.3273398495       -0.0011065931
 H          3.7177437017        0.9080180645        1.0426588953
 H          4.0580916613        0.7045591405       -0.6855665605
 H          2.7596070090        1.8027187389       -0.1515313450
 H          3.8398661290       -1.7143457766       -0.0198375982
 H         -1.0482323931        3.3057390591        0.0124119047
 H         -2.4091673206        2.5717570547       -0.8880916250
 H         -2.4282758026        2.5606069675        0.8766785085
 H         -1.7718499663       -2.9281173449        0.8778915805
 H         -1.7780151341       -2.9168557523       -0.8894191412
 H         -3.0686777973       -2.0572065726        0.0041740821
 H          1.7491145617       -2.3989092408       -0.0246681365
