72
 energy: -99.275181836234 gnorm: 0.004049676301 xtb: 6.6.1 (8d0f1dd)
N           -1.93758215387830        2.86957879792030        2.27475238692640
C           -1.86375591640401        2.16037431959560        1.25020058943045
C           -2.98836518650144        1.93840796839657        0.27780288617109
C           -3.43393117888679        0.48514484904759        0.33789597203512
C           -4.32694707550464       -0.00536856788139       -0.61702899431731
C           -4.78648980792531       -1.31107620059190       -0.57582212999154
O           -5.65678289005354       -1.85862699892845       -1.44917068870355
C           -6.25431140979932       -1.04411649589252       -2.43049223048597
C           -4.33296230389827       -2.18048348630376        0.45284542600751
O           -4.82917242531685       -3.43343752094721        0.41492332292200
C           -4.50818929679807       -4.32853021697360        1.45435150478674
C           -3.44456980718115       -1.68830900493729        1.39552212175680
C           -3.00427028943355       -0.37167843531879        1.33928325059503
C           -2.40622713543988        2.26238934907338       -1.12274118840354
C           -1.45104536252613        1.19159344501716       -1.67919238308949
C           -0.13024673515388        1.16284737957617       -1.01159234682641
N            0.51761111175792        0.06199802938942       -0.64215152001360
C            1.89947020166504        0.12769436773082       -0.23110109265819
C            2.85343186992512       -0.29330595860061       -1.36744123195615
C            4.28075241537807       -0.16302235360842       -0.91684325256666
C            4.97323699072654        1.02825610739399       -1.10176337357040
C            6.28133901777085        1.15769278170637       -0.68007827887385
C            6.92386930706628        0.08953190708691       -0.05785834731325
O            8.21118624583963        0.08213132228628        0.36987572572769
C            9.00483700744386        1.10876606363425        0.37862344951964
C            6.22361697659441       -1.12997349865288        0.15336220279904
O            6.92043968337734       -2.09688053816160        0.77782158618389
C            6.30111244998244       -3.33452703174056        1.04799523842439
C            4.90965347082648       -1.22909173424759       -0.27911923160741
C           -0.08665381306816       -1.24577722689742       -0.72666569158651
C           -4.23052420184218        2.83671274642438        0.55514067603728
C           -4.88107289255423        2.49392593227038        1.89317932470043
C           -3.91653086194958        4.32912233189851        0.49971243778665
H           -4.68104728700579        0.64993768231291       -1.39531932114652
H           -6.79730003571095       -0.20755016200749       -1.98054427902219
H           -6.95692183715791       -1.68833533963294       -2.95526532060405
H           -5.51554407556078       -0.66212308641375       -3.14254877961231
H           -4.81705275884077       -3.93807409401509        2.42849999272830
H           -5.06371704982610       -5.23874809886161        1.23767551075734
H           -3.43709767254227       -4.55430786427624        1.47351924321939
H           -3.09655814913121       -2.31963914737850        2.19688971235709
H           -2.33964533414499       -0.01620887989398        2.11147318256994
H           -3.23036248425247        2.37679009011984       -1.82588837145216
H           -1.88159150936369        3.21707071839428       -1.07293217978961
H           -1.93728856150584        0.21816905763435       -1.64905122068545
H           -1.27607670263288        1.44490988681119       -2.73323304531435
H           -0.93701788478368        1.65043083803860        0.92005356431831
H            0.42115668684942        2.08962550216894       -0.95343291176283
H            2.04950656194748       -0.52839021450716        0.63057574646547
H            2.14115116904470        1.14891959031015        0.07053776220150
H            2.67569683822936        0.35080042974158       -2.23000351245564
H            2.64504590109439       -1.32392699693262       -1.65671708617767
H            4.49205204845616        1.85803011286266       -1.59525953646217
H            6.80302664761676        2.09823750339150       -0.85035903737647
H            7.71739285764565        3.72271136827117       -0.91155210265838
H            8.71186087527546        2.10110644428786        0.06897100588520
H           10.00594572501987        0.90351052296922        0.71587332783063
H            7.05643137081550       -3.93026803110631        1.55685440408037
H            5.43417641661301       -3.21163172507540        1.70432398592142
H            5.99933135411891       -3.84234046020015        0.12769128537803
H            4.36803371143073       -2.15083101881957       -0.13618797373466
H           -0.23520636667925       -1.54777448510088       -1.76560641762684
H           -1.05344701742020       -1.25284139939981       -0.21751361966846
H            0.56249680444561       -1.97173903209675       -0.24362704607992
H           -4.95508842247967        2.61438831768579       -0.23644484698137
H           -4.19942230496494        2.71817334540722        2.70714912852496
H           -5.15389860015603        1.44236717275088        1.93978152874882
H           -5.78233920952091        3.08715531503702        2.02206084122588
H           -3.16728499693054        4.58571697197475        1.24190830481537
H           -3.56847438166795        4.63439258070806       -0.48338447818464
H           -4.81977164052995        4.89101664173056        0.72157101511858
H           -1.10556109302455        2.97344703682607        2.84650026739654
