25
 energy: -42.013027135446 gnorm: 0.006820211770 xtb: 6.6.1 (8d0f1dd)
C            3.49033088658305        0.94216778303488        0.56636104093909
N            2.23565042783977        0.34694524412904        0.16004258317420
C            2.16822975697531       -0.51924530588807       -0.83907710740112
N            1.13915257569076       -1.33521504016675       -1.14352356308263
C            0.12024815188493       -1.92625737124542       -0.46769957177364
C            1.12455193541024        0.73528300146581        0.90168880263525
C           -0.04648745073131        1.12357569574486        0.27989012071290
O            0.63480291913252        2.19693906281043        0.53418444304547
N           -1.24954636341934        0.86593119873022       -0.14790225018363
C           -2.14724431713414        1.95664735709792       -0.52709127863145
C           -1.83283196322535       -0.41044327259414       -0.00001341283253
O           -3.02518835447124       -0.53400335604440        0.00452930721751
N           -0.97766816469894       -1.53777256278016        0.13447364201561
C           -1.68448195383143       -2.64516678467456        0.79943451461081
H            3.74845954310821        0.59350410632526        1.56724822187418
H            4.28266261185194        0.67664832564338       -0.12803206358455
H            3.37669833188497        2.02597237977141        0.60140673597544
H            3.08480340020006       -0.69193138275154       -1.38944374088863
H           -1.62959429402549        2.90262332673936       -0.38880788656509
H           -2.43689703107679        1.83063533714394       -1.57032804286719
H           -3.04280391710062        1.92201310474556        0.09198618721155
H           -1.88209504137175       -2.36901614484646        1.83438634573625
H           -1.05830651105423       -3.53180174331964        0.76300583985067
H           -2.63369149203892       -2.83767621221535        0.30167340395694
H            1.40167782772306       -1.96211820525885       -1.90722065324605
