25
 energy: 0.000000000000 xtb: 6.6.1 (8d0f1dd)
C            3.23720163006194        1.16630919979326        0.08434469647475
N            2.29877817382611        0.07527477071623        0.03981603040599
C            2.58028210190900       -1.21425402444508        0.03006176031096
N            1.43813958087363       -1.93419271955128        0.00098261760884
C            0.39035688448383       -1.05887472636071       -0.00790371836672
C            0.93510056364412        0.21347819449412        0.01709077491437
C            0.09450143893243        1.40504303904423       -0.00410947031874
O            0.49712751527797        2.54126714362870       -0.00342325688240
N           -1.25076640035757        1.06271879480407       -0.03085478223738
C           -2.21907211982101        2.15522099834493       -0.05001256985998
C           -1.81739487048744       -0.20012725993278       -0.04692818574614
O           -2.99983886758376       -0.37846417018721       -0.07008878229737
N           -0.92618586207120       -1.30210215599479       -0.03682761578324
C           -1.46982264913417       -2.64643102187190       -0.06029820460571
H            3.71247264356769        1.21471455160235        1.06488849150277
H            4.00791497605742        1.03430808813993       -0.67357694370751
H            2.69910007168542        2.09770118228144       -0.09130154882931
H            3.56654120610678       -1.63682992603973        0.04233140067262
H           -1.67107961066214        3.09322851271934       -0.02552706933167
H           -2.82428953597071        2.09428624779827       -0.95318082946668
H           -2.87644029173232        2.07745725625962        0.81450067533302
H           -1.17061996399332       -3.19584890659852        0.83242232437030
H           -1.14560257411436       -3.17511610292205       -0.95688275822323
H           -2.55549792440841       -2.55659984320617       -0.07459039797972
H            1.38130855184625       -2.94313852034425       -0.01389874181052
25
 energy: -3.617350838709 xtb: 6.6.1 (8d0f1dd)
C            3.24948797605207        1.18982477241543        0.09531638498207
N            2.31591010901534        0.10400445748895        0.04211656733387
C            2.61330047882764       -1.22128520714576        0.03331243065482
N            1.44441994968991       -1.93602565092043       -0.00025047867802
C            0.40228650424168       -1.06081802861618       -0.01364256857653
C            0.93683228833750        0.22156532751296        0.01511645581870
C            0.11039951846782        1.39571101088908       -0.00617505385976
O            0.50709591259033        2.56144794695657       -0.00332476261944
N           -1.25034630154005        1.05025848009070       -0.03619955354986
C           -2.21128231780691        2.14502129261777       -0.06165132930010
C           -1.81548729578937       -0.19979448026420       -0.04839077891862
O           -3.01179572019134       -0.37953067051756       -0.07526314219758
N           -0.93662585045835       -1.30581953565855       -0.03729699365772
C           -1.52115440742482       -2.63772283289606       -0.05176931036981
H            3.74001226812869        1.22609694286746        1.07190672558991
H            4.01123036054624        1.06951028121452       -0.67672288384763
H            2.70010775434381        2.11610547032863       -0.06220072208445
H            3.59546697499100       -1.63908675667045        0.05159317843406
H           -1.65276923207839        3.07801633232911       -0.03800696183799
H           -2.81322020916764        2.08641521088938       -0.96795171888109
H           -2.87117995343573        2.07433631064201        0.80220937840481
H           -1.11523024225192       -3.23395948992383        0.76725306739464
H           -1.26849327478122       -3.14898180111712       -0.95904037722024
H           -2.63611901175312       -2.62629810934384       -0.00116915194629
H            1.38936838938304       -2.93996267099657       -0.01273450492048
25
 energy: 1.966554651312 xtb: 6.6.1 (8d0f1dd)
C            3.26287905172347        1.21895031704178        0.11331881937475
N            2.33351657558609        0.13636300063222        0.04709297537213
C            2.65078869100160       -1.22167112521467        0.04143307647388
N            1.45845620556399       -1.93141197578071        0.00034127042804
C            0.41613518903258       -1.06970587862447       -0.01857314308629
C            0.93658793932455        0.22724503924607        0.01291097818067
C            0.13355516572500        1.37755291689143       -0.00955706860197
O            0.51222928204122        2.56697155043124       -0.00255864793426
N           -1.24817128510403        1.03517710082024       -0.04751326224942
C           -2.19716199374311        2.13394104340207       -0.08378295688488
C           -1.80469289006700       -0.20117067890736       -0.05434853759309
O           -3.00953094470835       -0.38081721522451       -0.08662251752798
N           -0.94946627190402       -1.31549135362678       -0.03378190193162
C           -1.59209131405574       -2.63117887000242       -0.03580583996728
H            3.78364147857056        1.23744572206995        1.07892454276555
H            4.01076529888822        1.12974357783878       -0.68150997173023
H            2.70210051736171        2.14442991587084       -0.00780211521918
H            3.63136788652741       -1.62727656541401        0.06938226464451
H           -1.62568621974329        3.06023461883955       -0.06140163610774
H           -2.79356653858562        2.07521184022779       -0.99430891520689
H           -2.86237476773345        2.07201730285204        0.77714743435250
H           -1.01623871127027       -3.30288900105787        0.65765079203486
H           -1.49990404647282       -3.10195485256159       -0.99662494837801
H           -2.74000271686731       -2.70994297939075        0.15297732433457
H            1.41907908684476       -2.93274484818682       -0.00995411939535
25
 energy: 11.648460852228 xtb: 6.6.1 (8d0f1dd)
C            3.27149536382947        1.24434570873384        0.12870560865257
N            2.34783135603847        0.15787122589064        0.05216915685711
C            2.68072747262469       -1.21557834807082        0.04920544832405
N            1.48187661923538       -1.92647510404182        0.00548172836539
C            0.43035541017631       -1.08483580280743       -0.01307267928525
C            0.93976116843433        0.22551978803302        0.01421794598349
C            0.15252105872703        1.36593753041531       -0.01160430644564
O            0.51416666753194        2.56588568414726       -0.00266728100169
N           -1.24324584501814        1.02510333559169       -0.05963082052545
C           -2.18374446675453        2.12521873564611       -0.10781348173151
C           -1.79041645819961       -0.20769176927357       -0.06072902483280
O           -2.99894689827009       -0.38724516002216       -0.10024184425376
N           -0.95379101236406       -1.33220619987893       -0.01934350770503
C           -1.65057775632973       -2.63401797719700       -0.01587943738325
H            3.82508455202189        1.24252568815793        1.07955555951222
H            4.00243549818068        1.19376662657847       -0.69021400944616
H            2.70191599782649        2.17198460159031        0.05128205993210
H            3.66526458628937       -1.60635926250197        0.08533516409181
H           -1.60316882249571        3.04608751050402       -0.08695472027066
H           -2.77422612073497        2.06320625859293       -1.02203536333539
H           -2.85369781624551        2.07031842037481        0.74994251932520
H           -0.94763892928120       -3.37317902513884        0.53103144120621
H           -1.75559002871418       -3.04290350128286       -1.03454975383520
H           -2.81219620712765       -2.76953618769611        0.31029431974206
H            1.46601927855549       -2.92871417417275       -0.00545082579320
25
 energy: 18.288186770452 xtb: 6.6.1 (8d0f1dd)
C            3.27597688880499        1.26275920978733        0.13655759684072
N            2.35833281198543        0.16746976005621        0.05452859018682
C            2.70045126917863       -1.20462364066631        0.05238454110805
N            1.50941904716313       -1.92113203340357        0.01390868682290
C            0.44202421755318       -1.10204771572341        0.00341254916881
C            0.94583900499827        0.21790019260420        0.01917919577610
C            0.16583283184646        1.36098988908156       -0.01154314607259
O            0.51424660131139        2.55808537408604       -0.00151356623358
N           -1.23618215249864        1.01946163378832       -0.06943702169742
C           -2.17238748638658        2.11869520672685       -0.12572473674011
C           -1.77585549111419       -0.21733148307833       -0.06869585179846
O           -2.98312880556736       -0.39627280802722       -0.11558024879133
N           -0.95257375927446       -1.35209329901427        0.00216689700297
C           -1.69494887619795       -2.64263398662644        0.00104310028805
H            3.86158095585489        1.24098815948707        1.06961752569987
H            3.98702789574953        1.25199459524408       -0.70495201911317
H            2.70069039881944        2.19285885010405        0.10384468398913
H            3.69249349965863       -1.58071149814540        0.09234883581936
H           -1.58701609167767        3.03604233097558       -0.10611255839175
H           -2.75894502148400        2.05298873935930       -1.04177883727253
H           -2.84482869473506        2.06829845961491        0.73002624314301
H           -0.95201604361766       -3.41563663637141        0.40779620147123
H           -1.95205236750933       -2.97884309402491       -1.01879159813429
H           -2.85224835079137       -2.82190500360452        0.40666978635277
H            1.52048238586641       -2.92627260005761       -0.00232095327731
25
 energy: 20.219027521855 xtb: 6.6.1 (8d0f1dd)
C            3.27521779893724        1.26807708319011        0.13773900631575
N            2.36246148287870        0.16177849883609        0.05469253830443
C            2.70277238542300       -1.19006477043785        0.05401930931516
N            1.53398567221360       -1.91579286023309        0.02604443685154
C            0.44697231581498       -1.11616151096753        0.02588841212023
C            0.95322066204305        0.20674105100952        0.02611141249467
C            0.17102998067192        1.36415652645456       -0.01146535578879
O            0.51337868088424        2.54599182788468       -0.00143227716189
N           -1.22746156883060        1.01791279292640       -0.07523861198775
C           -2.16545075667797        2.11438342926367       -0.13894670337495
C           -1.76542293958959       -0.22891355276860       -0.07110414255918
O           -2.96721855177089       -0.40641832404002       -0.13148668513257
N           -0.94688911285466       -1.37036706640169        0.02963175993977
C           -1.71289822284009       -2.65842767951348        0.01281007642665
H            3.88091784488345        1.23184000428230        1.05308272903584
H            3.96676489370640        1.28561368014211       -0.71565021860552
H            2.70085608953484        2.19720484542581        0.13643508676716
H            3.70347028466252       -1.55610195745735        0.09757158861781
H           -1.58159485561808        3.03180761299325       -0.12144010417750
H           -2.75027153620543        2.04496678101807       -1.05514922797349
H           -2.83887715535499        2.06816657710318        0.71589647000477
H           -0.97880249671586       -3.43365731077110        0.27007197939474
H           -2.08633080388264       -2.88070989929133       -0.96923795649342
H           -2.84714925200946       -2.86902154190672        0.47392178144941
H            1.56953382863241       -2.92397563456886        0.00426859236435
25
 energy: 23.438452448296 xtb: 6.6.1 (8d0f1dd)
C            3.27269334767873        1.26578261478322        0.13688792883589
N            2.36378107524302        0.15414157090731        0.05703157356691
C            2.69879157258280       -1.17830260952686        0.06214325633749
N            1.54863778605163       -1.91388814760190        0.04790661462122
C            0.44986303164347       -1.12095436524535        0.05270878963785
C            0.95842794400892        0.20140903882528        0.03616602839323
C            0.17226377013611        1.36721092774969       -0.01197005034657
O            0.51599942925940        2.54191193559974       -0.00844338660037
N           -1.21914013573435        1.01403158809694       -0.07754964538861
C           -2.16289880102811        2.10827245355822       -0.15789030513117
C           -1.75901966111053       -0.23851524556846       -0.05801870008963
O           -2.95730942201409       -0.41721892095592       -0.14419240568712
N           -0.93746474228938       -1.37798994969071        0.07283627047111
C           -1.71104505084134       -2.66784814079881        0.02569318917101
H            3.88492664026313        1.21958913837508        1.04114555709801
H            3.94786592400545        1.29022237126464       -0.72132487986516
H            2.69821507344588        2.18876770705514        0.14849812000373
H            3.70285851724907       -1.54095690230036        0.11330682226435
H           -1.58586128145890        3.03028613655978       -0.14594766118076
H           -2.74519234442025        2.03290606082451       -1.07524832465616
H           -2.83970803300341        2.07098935052831        0.69511379875560
H           -0.92139951431812       -3.49492861723676        0.08794430952021
H           -2.24553923393441       -2.71734433330880       -0.96366770829208
H           -2.81435469466742       -2.90705995665723        0.58518516547352
H            1.59682347118875       -2.92148510306453        0.02871953923473
25
 energy: 19.865608114059 xtb: 6.6.1 (8d0f1dd)
C            3.26916535835374        1.25864769762421        0.13064122553231
N            2.36002130068341        0.14563118882417        0.05535804421687
C            2.68865604564092       -1.17310962861129        0.06066596153836
N            1.54698221196675       -1.91605410481951        0.05801998123747
C            0.44720943757961       -1.11697681362361        0.06296435678530
C            0.95863115848701        0.20141333444184        0.04226718615864
C            0.16690749426969        1.36628628475650       -0.00887464451784
O            0.51842348673317        2.54007242157479       -0.00859097530594
N           -1.21487971696065        1.00942194277242       -0.07313537206980
C           -2.16371421192421        2.10361527432841       -0.15781989415061
C           -1.75921507553518       -0.24284326315506       -0.05273041261198
O           -2.95441522599703       -0.42216792777748       -0.14751359882067
N           -0.92926192019742       -1.37466974779336        0.08754595623191
C           -1.69437740854173       -2.66804762486106        0.01750870619251
H            3.88165873632193        1.20847359463818        1.03324364472390
H            3.93765417728400        1.27759433376462       -0.73076307512593
H            2.69207339171580        2.17908309209507        0.14374126075073
H            3.69139656523372       -1.54097252322695        0.11452077099495
H           -1.59208500355278        3.02995009993993       -0.14823728024376
H           -2.74569469321331        2.02686204112472       -1.07544339478624
H           -2.84163207954058        2.06908541196173        0.69457883235859
H           -0.93980977072839       -3.47060721920429        0.02210094054567
H           -2.23839149706742       -2.65747196367578       -0.91307088743976
H           -2.76293934839020       -2.92260703573672        0.57837545529291
H            1.58985125531521       -2.92158026318936        0.04168110865965
25
 energy: 19.353483359084 xtb: 6.6.1 (8d0f1dd)
C            3.26966090319523        1.25933332047911        0.12661755577226
N            2.36100596439687        0.14673644549812        0.05439969249215
C            2.69143562741374       -1.17363947789600        0.06228399993352
N            1.54689009036360       -1.92000791009431        0.07141234504881
C            0.45048659486985       -1.11509594444194        0.07563880446148
C            0.95865783483313        0.20384215799601        0.04817793057690
C            0.16469054389903        1.36193182378856       -0.00684314822667
O            0.52104564428005        2.54138944066615       -0.01303346364119
N           -1.21376854407142        1.00416234844519       -0.07027010099721
C           -2.16434072775156        2.09787062731039       -0.16178102705331
C           -1.75602273629907       -0.24603331658558       -0.04593352828703
O           -2.95055859437491       -0.42867244810973       -0.14814170999602
N           -0.92174247562387       -1.37358505604646        0.11096226420227
C           -1.68871913437137       -2.66582987488189        0.00963446972317
H            3.88493327909968        1.20796242671629        1.02892113325808
H            3.93540567440155        1.27572466574312       -0.73937229568240
H            2.68772377046283        2.17831828588788        0.14109382652091
H            3.69178971310594       -1.54541010187771        0.12230025849082
H           -1.59410286514744        3.02579625565031       -0.15513104833080
H           -2.74373395225250        2.01615372034833       -1.08080507151954
H           -2.84380371200879        2.06542639912449        0.68923577329725
H           -0.94154238282664       -3.46367115036096       -0.07058132933927
H           -2.29349458364091       -2.58096281703116       -0.88503198401388
H           -2.72283545749531       -2.95833324329000        0.60381095806864
H            1.58315419347837       -2.92437797486608        0.05946959138830
25
 energy: 18.897637900233 xtb: 6.6.1 (8d0f1dd)
C            3.27054145455995        1.26029995349394        0.12372727126391
N            2.36123248624909        0.15031598685089        0.05225419461179
C            2.69722421660874       -1.18136200490375        0.06194302780156
N            1.54058207089488       -1.92528315303188        0.07847703581037
C            0.45291390253173       -1.11240827194557        0.08029876231783
C            0.95706351979182        0.20667743492140        0.04946470828258
C            0.16094395684836        1.35729431443172       -0.00784543189536
O            0.52300052817481        2.54280221691403       -0.02091207885088
N           -1.21734435912759        1.00306624161746       -0.06648322742464
C           -2.16702986596576        2.09656339658028       -0.16229530724377
C           -1.75547924317293       -0.24404805883905       -0.03626818847861
O           -2.95137800482142       -0.42968007521604       -0.13921880850381
N           -0.91911586694534       -1.37107249750895        0.13103608789526
C           -1.68639657116847       -2.66010030168062       -0.00224015093382
H            3.87835543315029        1.21941128459560        1.03225694813338
H            3.94639172301585        1.26700889180231       -0.73583272387748
H            2.68822676877762        2.17938634658779        0.12345326642825
H            3.69344066472227       -1.55802109290289        0.13117907312381
H           -1.59481174198292        3.02328501755934       -0.15772141550327
H           -2.74434137026479        2.00997236562484       -1.08217950520798
H           -2.84701367645782        2.06379765774303        0.68775491227187
H           -0.93605412018657       -3.45372957511094       -0.14836940476947
H           -2.32093501048069       -2.52571510748069       -0.84947282270013
H           -2.68192467665933       -2.99987719931417        0.61273118419733
H            1.56412244984432       -2.92955516861593        0.07129648939857
25
 energy: 17.701902739045 xtb: 6.6.1 (8d0f1dd)
C            3.27092798855214        1.26006767280787        0.12387893080194
N            2.36187909879494        0.15119767074014        0.05139499977700
C            2.70108471351732       -1.18551317285667        0.06054605269690
N            1.53908646335781       -1.92658588351391        0.07837845435574
C            0.45591660139413       -1.11164757386240        0.07784456330709
C            0.95829256641694        0.20642480410806        0.04777263792999
C            0.15900955298778        1.35643503746954       -0.01081478648373
O            0.52222919145821        2.54250096996093       -0.02599555902812
N           -1.21916726848443        1.00283470892812       -0.06478971699990
C           -2.16939464335671        2.09560737011623       -0.16206513217509
C           -1.75423105833883       -0.24509499124687       -0.02988484783363
O           -2.95142670121927       -0.43271675766750       -0.12986041021315
N           -0.91583140270066       -1.37305294591729        0.13807473381733
C           -1.67772312045229       -2.66216665780511       -0.00725181457480
H            3.86790355385176        1.22888891667199        1.03977405257777
H            3.95732724195181        1.25770980304564       -0.72695650726070
H            2.68980745785852        2.17946299018274        0.10788855009123
H            3.69526823175169       -1.56315638798772        0.13723767902501
H           -1.59712153210590        3.02194388714504       -0.15790726511652
H           -2.74653245071279        2.00829606840512       -1.08190745224457
H           -2.84999548376713        2.06297756091217        0.68748858360909
H           -0.94006965542657       -3.43852503596511       -0.17219689096032
H           -2.35079027714946       -2.49903659700464       -0.84433669709671
H           -2.65016947868132       -3.01663480697921        0.61751321647435
H            1.55593507843840       -2.93118804751505        0.07320852167105
25
 energy: 17.774026710561 xtb: 6.6.1 (8d0f1dd)
C            3.27031282741251        1.25899673088499        0.12446922259908
N            2.36086766945293        0.15023396110926        0.05180138651795
C            2.69984550455625       -1.18564920421378        0.05929980764006
N            1.53846353247702       -1.92553094251203        0.07689800440225
C            0.45451109890237       -1.11200277799701        0.07652032207950
C            0.95831492190264        0.20517766541439        0.04741612356232
C            0.15941901224030        1.35773458376871       -0.01137249850214
O            0.52186185682028        2.54160536114495       -0.02669853334697
N           -1.21907375114475        1.00456708543349       -0.06469449004553
C           -2.16910642753176        2.09725320665630       -0.16258520258458
C           -1.75497959435336       -0.24389870233448       -0.02840082001674
O           -2.95237910144387       -0.43043254441408       -0.12663576490378
N           -0.91805926855144       -1.37326426887191        0.13741588379511
C           -1.68058081908248       -2.66157803141470       -0.00754538212714
H            3.86546432032918        1.22891210881130        1.04259614066386
H            3.95900475641058        1.25543554338768       -0.72539296226460
H            2.68968548674947        2.17971034858412        0.10625715853216
H            3.69445123801813       -1.56179958801446        0.13749494268241
H           -1.59696951908990        3.02349842669021       -0.15835345088526
H           -2.74629666774440        2.01026920959813       -1.08247049702073
H           -2.85015396217329        2.06505158364804        0.68680017756564
H           -0.93244722681560       -3.44454930189736       -0.17391834090586
H           -2.34453722058186       -2.50360008205413       -0.84127914541844
H           -2.65179849347941       -3.01660591085899        0.61843849004287
H            1.55639449465652       -2.93050585837648        0.07097332408578
25
 energy: 17.512149609072 xtb: 6.6.1 (8d0f1dd)
C            3.26981350150333        1.25861141770637        0.12505095101616
N            2.36006515566632        0.15029271384256        0.05210083723435
C            2.69968360962653       -1.18598820304795        0.05687945669885
N            1.53816258386490       -1.92482443158695        0.07505437811843
C            0.45386339925439       -1.11221751660384        0.07404728934511
C            0.95825822785001        0.20443352079772        0.04690538281282
C            0.15997913010227        1.35840164460768       -0.01123434390161
O            0.52129815924383        2.54122953909042       -0.02673509479617
N           -1.21897604111975        1.00518090726286       -0.06438532482497
C           -2.16878995538974        2.09777523134512       -0.16210017736304
C           -1.75528339786005       -0.24343414932573       -0.02807045510721
O           -2.95316287425888       -0.42910234439688       -0.12357031199842
N           -0.91938508137873       -1.37383449814832        0.13442936803264
C           -1.68202010842094       -2.66142868248517       -0.00960339538409
H            3.86211343925030        1.23058850036290        1.04636229893969
H            3.96219062889171        1.25249345057934       -0.72290655721394
H            2.68990213680839        2.18071933942768        0.10278531736281
H            3.69461721690615       -1.56032809978198        0.13759691938447
H           -1.59678870666257        3.02404484635570       -0.15725407270592
H           -2.74581961598145        2.01155852253276       -1.08223373542387
H           -2.85032362019654        2.06544295421966        0.68697641662370
H           -0.93301221554019       -3.44306651665460       -0.16617348575761
H           -2.34034362527144       -2.51353541475943       -0.84233006852815
H           -2.65053670085953       -3.01392125782293        0.61745695208789
H            1.55670942190778       -2.93006287134484        0.06798535149533
25
 energy: 17.192034201776 xtb: 6.6.1 (8d0f1dd)
C            3.26937865471370        1.25813379623866        0.12526225227944
N            2.35935280356685        0.15018795244521        0.05237254837574
C            2.69941665526179       -1.18591239125931        0.05439685568004
N            1.53829166459332       -1.92420506325227        0.07491754260290
C            0.45341272213006       -1.11245708078626        0.07362628078082
C            0.95828030084253        0.20376655115459        0.04699045169382
C            0.16041645226952        1.35892775285005       -0.01115604450504
O            0.52074814582483        2.54081803120466       -0.02742925981523
N           -1.21870373160134        1.00533861965410       -0.06418564976538
C           -2.16845586245587        2.09778601752944       -0.16244421000498
C           -1.75529218327264       -0.24352848768228       -0.02708611230729
O           -2.95340036471982       -0.42863202701842       -0.12105685564769
N           -0.92005749228093       -1.37460446921521        0.13482479593202
C           -1.68267324395752       -2.66158922164144       -0.01092599480401
H            3.85864557255648        1.23257339073951        1.04925380131207
H            3.96517554078729        1.24912345046294       -0.72025873344878
H            2.69064887868135        2.18124702425895        0.09854782571746
H            3.69468496392639       -1.55847855568346        0.13932211553893
H           -1.59672568064731        3.02423299206558       -0.15727244105971
H           -2.74508352743584        2.01189563867602       -1.08291340399839
H           -2.85058056526534        2.06564148386506        0.68620459653091
H           -0.93214291184175       -3.44494032346471       -0.17038855613916
H           -2.34612487473480       -2.51112266412735       -0.84210940974763
H           -2.64468959773311       -3.01555702065634        0.62180809190628
H            1.55769234872826       -2.92961679418561        0.06673340904010
25
 energy: 16.924508172342 xtb: 6.6.1 (8d0f1dd)
C            3.26932611989275        1.25806707495156        0.12519460320172
N            2.35918339786389        0.15031462414945        0.05250752344526
C            2.69925286942214       -1.18571753682446        0.05220133638559
N            1.53841675285356       -1.92421194779041        0.07511455619667
C            0.45322915887573       -1.11252080094571        0.07383665966727
C            0.95806980743181        0.20386006277619        0.04730928273785
C            0.16062415200435        1.35888468355693       -0.01074037149785
O            0.52050132414572        2.54104772706289       -0.02713193293482
N           -1.21863941935969        1.00495148279375       -0.06430090680578
C           -2.16832976128876        2.09742844938957       -0.16232589598049
C           -1.75535337703925       -0.24373917466322       -0.02762670284104
O           -2.95345057141760       -0.42862547537586       -0.12156811252075
N           -0.92015063995505       -1.37467043802626        0.13412955322396
C           -1.68299201268726       -2.66128817832569       -0.01117095310875
H            3.85799270297021        1.23308428123252        1.04963669682229
H            3.96585480056153        1.24825270737108       -0.71976082922068
H            2.69105732825230        2.18141541525672        0.09758593178136
H            3.69462979299720       -1.55755242904846        0.14073611412815
H           -1.59660566405881        3.02395933236871       -0.15690281377626
H           -2.74475770632655        2.01174604647082       -1.08292976475765
H           -2.85051211019710        2.06511856361264        0.68621097510808
H           -0.93374635950979       -3.44545801828395       -0.16899238681881
H           -2.34808804978927       -2.51130147690946       -0.84289568706615
H           -2.64177068026486       -3.01447124063283        0.62304519535291
H            1.55847281255890       -2.92954513199441        0.06587182542513
25
 energy: 16.487974133778 xtb: 6.6.1 (8d0f1dd)
C            3.26938573136231        1.25788501616308        0.12518890290785
N            2.35917356937267        0.15026478376637        0.05278238640947
C            2.69878467176089       -1.18557815487961        0.04715953838262
N            1.53830119986665       -1.92453101609612        0.07520602072586
C            0.45287859661255       -1.11257794686861        0.07422647516918
C            0.95763426495746        0.20423374251139        0.04797797683811
C            0.16077744208279        1.35864870557025       -0.01012181762321
O            0.52030773936783        2.54152518342148       -0.02598352312473
N           -1.21880846967890        1.00444400648237       -0.06482897892648
C           -2.16839346123315        2.09710113441494       -0.16209957917858
C           -1.75567810862275       -0.24388122165838       -0.02945136422644
O           -2.95361041327206       -0.42861231061496       -0.12426143469226
N           -0.92024837889877       -1.37431771802059        0.13170328797935
C           -1.68349871860944       -2.66041622761626       -0.01154660862695
H            3.85847354349359        1.23257892641046        1.04916253929153
H            3.96551357105032        1.24817952558961       -0.72002159290483
H            2.69129470676460        2.18120060405194        0.09828236516324
H            3.69391952893382       -1.55679209878990        0.14505762399323
H           -1.59648399953578        3.02361629326272       -0.15632102473427
H           -2.74470274137813        2.01173709225985       -1.08275623633796
H           -2.85038902078189        2.06438600745516        0.68647785020617
H           -0.93523962456912       -3.44528098302552       -0.16561833831595
H           -2.34932486597717       -2.51218648470434       -0.84400615849288
H           -2.63716613344581       -3.01296884402632        0.62694091526501
H            1.55931403831358       -2.92962941288690        0.06388467100014
25
 energy: 16.425682474801 xtb: 6.6.1 (8d0f1dd)
C            3.26946464496102        1.25771302346376        0.12516447317852
N            2.35915938048865        0.15015140838186        0.05288410973654
C            2.69849643956501       -1.18568307427280        0.04572152923438
N            1.53798817225205       -1.92477786409601        0.07532920072948
C            0.45264009111362       -1.11254858354578        0.07453456001473
C            0.95744574351603        0.20437070681747        0.04829562010247
C            0.16073191263125        1.35854665292115       -0.00991933453593
O            0.52031249501035        2.54163664670208       -0.02544990595959
N           -1.21893928454276        1.00453259542715       -0.06491045223500
C           -2.16843192276646        2.09726078918231       -0.16213463416635
C           -1.75596096652841       -0.24353552798458       -0.02983161038391
O           -2.95386273124559       -0.42796825920852       -0.12527725818202
N           -0.92050344747130       -1.37389396998023        0.13117324468399
C           -1.68386282881446       -2.65987966387901       -0.01158757994652
H            3.85860817201036        1.23250963433405        1.04888302088001
H            3.96530325500135        1.24821069288277       -0.72020142757959
H            2.69146940149471        2.18089231835222        0.09849394723969
H            3.69355404580208       -1.55676638091171        0.14613192646855
H           -1.59644239511493        3.02375760678225       -0.15638090311460
H           -2.74473902217172        2.01168689456561       -1.08271647934711
H           -2.85040801720819        2.06427768102090        0.68637354941845
H           -0.93435187417970       -3.44636150602270       -0.16567054922278
H           -2.34826408318139       -2.51189397370257       -0.84366362501249
H           -2.63625275044741       -3.01337457141088        0.62839726241683
H            1.55906023776194       -2.92983467364661        0.06339521172950
25
 energy: 16.455504947281 xtb: 6.6.1 (8d0f1dd)
C            3.26947332345996        1.25790625563350        0.12511296401817
N            2.35939349223902        0.15009966654828        0.05280393727966
C            2.69879295641268       -1.18575189246662        0.04547507195233
N            1.53810969374224       -1.92474985316527        0.07513483793059
C            0.45296793239744       -1.11256079794052        0.07473625436326
C            0.95766431218187        0.20432877329884        0.04826812664889
C            0.16063790477755        1.35853301297918       -0.01007934641670
O            0.52042399726163        2.54147265535858       -0.02560175822951
N           -1.21895559513948        1.00465659507681       -0.06487838521318
C           -2.16856290911772        2.09735261544010       -0.16216569029833
C           -1.75573610316445       -0.24363307384928       -0.02968086425936
O           -2.95357857847193       -0.42846734882656       -0.12506354303023
N           -0.92012675163470       -1.37400024757279        0.13146404470564
C           -1.68360877308484       -2.66011948603218       -0.01123624142776
H            3.85938823086122        1.23199847038387        1.04834206827884
H            3.96457240623337        1.24916768299016       -0.72082366491429
H            2.69097092737514        2.18087844845506        0.09947526707594
H            3.69350169647330       -1.55724960960930        0.14699229385481
H           -1.59660250905822        3.02379391394498       -0.15652854317958
H           -2.74502807725421        2.01173412480206       -1.08267224762432
H           -2.85045180627897        2.06453736500994        0.68649072839366
H           -0.93467717668529       -3.44611275596990       -0.16552186304457
H           -2.34868283070522       -2.51245191110956       -0.84324675057982
H           -2.63656133148684       -3.01250203409986        0.62674380680491
H            1.55889023660256       -2.92983196710738        0.06349339305822
25
 energy: 16.552325729551 xtb: 6.6.1 (8d0f1dd)
C            3.26936908964941        1.25816010819246        0.12514407201191
N            2.35962556919876        0.14992775753176        0.05260402116717
C            2.69928615030710       -1.18596535192220        0.04390842628768
N            1.53812513437480       -1.92459575945401        0.07438637778710
C            0.45337324792815       -1.11253733111039        0.07475559098246
C            0.95800541232643        0.20411728958843        0.04812468940805
C            0.16038877395459        1.35859896786650       -0.01036419070756
O            0.52061629634977        2.54103870694173       -0.02588706707795
N           -1.21897364539071        1.00508609075544       -0.06478834940542
C           -2.16865657333070        2.09775805564065       -0.16229523863850
C           -1.75546979697750       -0.24364722938095       -0.02949698304824
O           -2.95324525443343       -0.42914090913334       -0.12445459818306
N           -0.91972863551201       -1.37417690750705        0.13146827171190
C           -1.68286869716644       -2.66082660832467       -0.01109573645340
H            3.86084158221250        1.23072722281750        1.04735766955763
H            3.96296991499207        1.25108973609163       -0.72182180887612
H            2.69012508469075        2.18080140782850        0.10170456105271
H            3.69310913382313       -1.55824087031649        0.15000978607834
H           -1.59668838551128        3.02404153644996       -0.15686755495128
H           -2.74535133258076        2.01207696155392       -1.08272002587640
H           -2.85045974027935        2.06531457632629        0.68659753951394
H           -0.93417151685393       -3.44470663272521       -0.16582791875235
H           -2.34875765822664       -2.51337354312087       -0.84296187505029
H           -2.63751138529551       -3.01269809578778        0.62601868844552
H            1.55826189968690       -2.92980057662972        0.06353554916338
25
 energy: 16.488075052505 xtb: 6.6.1 (8d0f1dd)
C            3.26930901244181        1.25814416512153        0.12501877266442
N            2.35950852155628        0.14995452328655        0.05255485222420
C            2.69938993331626       -1.18600542714835        0.04122263308185
N            1.53805751170826       -1.92460359110473        0.07423613006717
C            0.45332910486662       -1.11251907149563        0.07517674365187
C            0.95797357646331        0.20407446991582        0.04838076181927
C            0.16035906435706        1.35859243182792       -0.01012218535769
O            0.52054960578717        2.54101220379849       -0.02584870731862
N           -1.21893207389142        1.00510607829842       -0.06464858544630
C           -2.16857586077455        2.09776976337825       -0.16232132641891
C           -1.75551395750798       -0.24357838601094       -0.02938768690077
O           -2.95330731968593       -0.42898924418631       -0.12436380889893
N           -0.91979547645637       -1.37411620156833        0.13148595121966
C           -1.68294976357701       -2.66075461731655       -0.01107154369494
H            3.86088798271391        1.23064553762731        1.04710017386626
H            3.96276852298275        1.25122572230647       -0.72198937896624
H            2.69022572002248        2.18078000681563        0.10181128270779
H            3.69282280088426       -1.55806641827919        0.15260800874157
H           -1.59661205001332        3.02407920341860       -0.15698502360620
H           -2.74523688696657        2.01198021706053       -1.08274738986587
H           -2.85040547213824        2.06537766151050        0.68653225555290
H           -0.93424907330488       -3.44534391118740       -0.16597968887593
H           -2.34888166998562       -2.51339194769579       -0.84282275478793
H           -2.63668619111061       -3.01252745125204        0.62600811032270
H            1.55817910624843       -2.92981711494864        0.06318630036592
