  25
        -42.10209186
 C          3.2327893865        0.9716024945        0.2692841306
 N          1.8828333747        0.4845756926       -0.0054776985
 C          1.8261978786       -0.6429603310       -0.7585136853
 N          0.9116214673       -1.6049860683       -0.7568840203
 C         -0.2646885734       -1.7626931370       -0.0818277057
 C          0.8417562966        1.2260596781        0.5441979883
 C         -0.5349609517        1.0867575945       -0.0568643514
 O          1.0312726617        2.0553828561        1.3945525252
 N         -0.8431024661        1.7534295352       -1.0558287390
 C         -2.1395620944        1.8737354073       -1.6295889935
 C         -1.2519209678       -0.9895034873        0.5076107681
 O         -1.4578010003        0.2963973998        0.6950902701
 N         -2.0987448696       -2.0248798196        0.7245601435
 C         -1.1402185228       -2.9805110758        0.1598162965
 H          3.7894259603        0.2437286615        0.8583521867
 H          3.7588033154        1.1668389722       -0.6645560462
 H          3.1498003294        1.8974522528        0.8355520408
 H          2.7152849978       -0.8476698562       -1.3405452904
 H         -2.4516021062        2.9102563487       -1.4929642328
 H         -2.0424149876        1.7014218755       -2.7028899155
 H         -2.8885394583        1.2068708907       -1.1929096145
 H         -0.7600801437       -3.7086962768        0.8776387733
 H         -1.5278223648       -3.4854436491       -0.7252433935
 H         -2.8633421051       -2.1513605680        1.3629015662
 H          1.1541975279       -2.4142382203       -1.3246190693
