  72
        -99.26901870
 N         -1.7628924698        2.6870702201        2.5174640596
 C         -1.7372592758        2.0834246675        1.4240593954
 C         -2.8974935898        2.0050547178        0.4679727714
 C         -3.4359533699        0.5840345826        0.4342683084
 C         -4.4028437615        0.2347925175       -0.5111058974
 C         -4.9507609481       -1.0368294599       -0.5554452395
 O         -5.8990367261       -1.4505114806       -1.4160501932
 C         -6.4720924993       -0.5217162358       -2.3099225395
 C         -4.5041378961       -2.0120467211        0.3777661053
 O         -5.0792680215       -3.2319989069        0.2573500037
 C         -4.9422781594       -4.2228124343        1.0962951811
 C         -3.5310776501       -1.6648872720        1.3122366948
 C         -3.0107247311       -0.3832111466        1.3386948632
 C         -2.3368602315        2.3949541334       -0.9252267252
 C         -1.4594554398        1.3185312993       -1.5894528363
 C         -0.1165335609        1.1932310244       -0.9802113490
 N          0.5032518464        0.0510481451       -0.7042988500
 C          1.8907397934        0.0483808225       -0.3046647936
 C          2.8243042442       -0.3448254529       -1.4658880280
 C          4.2567904558       -0.2352997939       -1.0233841041
 C          4.9377080775        0.9662326948       -1.1343189127
 C          6.2490663261        1.0823033841       -0.7002989665
 C          6.9058106247       -0.0038620758       -0.1398474679
 O          8.1733226570       -0.0084123500        0.3113754821
 C          8.9464026164        1.1648549090        0.2043599865
 C          6.2132544693       -1.2406149862       -0.0167439640
 O          6.9252367246       -2.2417659069        0.5364797116
 C          6.3373756067       -3.5133592289        0.6742797266
 C          4.9020397213       -1.3318920424       -0.4568887031
 C         -0.1428454716       -1.2293995402       -0.8649859214
 C         -4.0711221446        2.9588933923        0.8473461549
 C         -4.7274748952        2.5460546262        2.1627260670
 C         -3.6534595219        4.4250552939        0.9184756213
 H         -4.7429915657        0.9758780203       -1.2144685576
 H         -6.9366373918        0.3115599921       -1.7749555848
 H         -7.2374492410       -1.0734803585       -2.8516382571
 H         -5.7326893152       -0.1389890351       -3.0199453037
 H         -4.3683820003       -4.1613281624        2.0045163162
 H         -5.4520302670       -5.1260228445        0.8176303372
 H         -3.5695234656       -6.9337087064        1.4963523900
 H         -3.1730701357       -2.3931366958        2.0220056971
 H         -2.2809376039       -0.1357423968        2.0933171540
 H         -3.1723495545        2.6090039360       -1.5908971140
 H         -1.7556023783        3.3121092563       -0.8236713956
 H         -1.9878919438        0.3668348031       -1.6004795149
 H         -1.3167522394        1.6312511419       -2.6323814522
 H         -0.8411331132        1.5727662574        1.0221158113
 H          0.4662211235        2.0961922932       -0.8732595582
 H          2.0248665858       -0.6541057014        0.5224413513
 H          2.1668453822        1.0449548727        0.0456924131
 H          2.6421274337        0.3279313615       -2.3057070283
 H          2.6050185707       -1.3642017405       -1.7851516875
 H          4.4522030715        1.8238439705       -1.5748661517
 H          6.7549928417        2.0276785645       -0.8074046034
 H          8.5130155052        1.9847780724        0.7851620996
 H          9.0603785958        1.4753429974       -0.8385228301
 H          9.9219420616        0.9095789810        0.6135906258
 H          7.1053275056       -4.1432783478        1.1189120825
 H          5.4667635299       -3.4834354458        1.3373429691
 H          6.0460952945       -3.9282683968       -0.2955906352
 H          4.3711866025       -2.2675073629       -0.3754546467
 H         -0.3219520420       -1.4532041950       -1.9190224139
 H         -1.0983813996       -1.2438695504       -0.3353442564
 H          0.4932700454       -2.0068281213       -0.4497144331
 H         -4.8194935658        2.8606762722        0.0526664269
 H         -4.0198204333        2.6464436768        2.9790863196
 H         -5.0783673280        1.5175510055        2.1234158500
 H         -5.5797055748        3.1906386536        2.3611158412
 H         -2.8927083003        4.5649971315        1.6800540077
 H         -3.2793714294        4.7885549763       -0.0349345015
 H         -4.5171287457        5.0275334878        1.1876531125
 H         -0.9128704900        2.6973613860        3.0726817325
