25
 energy: -42.456920621281 xtb: 6.6.1 (8d0f1dd)
C            3.24940973734725        1.21691432250828        0.10254613989324
N            2.30220159594633        0.13971407052867        0.00696777510151
C            2.56321050588242       -1.15705557699256       -0.03666744871581
N            1.42953265109388       -1.86382141692329       -0.10894161268373
C            0.36493741093374       -0.98244689490097       -0.11136792807021
C            0.92683768949648        0.31208266724761       -0.03302387479363
C            0.13987564090768        1.48139515234714       -0.03629873468129
O            0.53756700854218        2.64657201368385       -0.00958100641612
N           -1.23591688593192        1.15735304019021       -0.07348010886094
C           -2.17854150963053        2.26766918308599       -0.04917808861447
C           -1.81551334349147       -0.07775903499708       -0.13000118028603
O           -3.01321901813293       -0.23880701458487       -0.14565959576485
N           -0.95091134839028       -1.23022976218777       -0.18145050425582
C           -1.50721563212630       -2.45154795540967       -0.31689548705842
H            3.72548403663766        1.22160994402487        1.08404859053821
H            4.01711422186156        1.11784847421984       -0.66448239971620
H            2.70630004130923        2.15388652296041       -0.03092330664213
H            3.54663834697821       -1.58272465757138       -0.00707513121502
H           -1.60037853475444        3.18870700716426       -0.02823563045798
H           -2.81589874159427        2.23711196565541       -0.93256374150812
H           -2.81190583777511        2.19663309457299        0.83455400029949
H           -1.56686347507218       -5.08190872436627        1.41334412285139
H           -0.89054796539778       -3.31993998496893       -0.22434497029878
H           -2.57281416770217       -2.49539568072490       -0.34035986841717
H            1.36037974690023       -2.86979796761818       -0.14551845199877
