25
 energy: 0.000000000000 xtb: 6.6.1 (8d0f1dd)
C            3.23720163006194        1.16630919979326        0.08434469647475
N            2.29877817382611        0.07527477071623        0.03981603040599
C            2.58028210190900       -1.21425402444508        0.03006176031096
N            1.43813958087363       -1.93419271955128        0.00098261760884
C            0.39035688448383       -1.05887472636071       -0.00790371836672
C            0.93510056364412        0.21347819449412        0.01709077491437
C            0.09450143893243        1.40504303904423       -0.00410947031874
O            0.49712751527797        2.54126714362870       -0.00342325688240
N           -1.25076640035757        1.06271879480407       -0.03085478223738
C           -2.21907211982101        2.15522099834493       -0.05001256985998
C           -1.81739487048744       -0.20012725993278       -0.04692818574614
O           -2.99983886758376       -0.37846417018721       -0.07008878229737
N           -0.92618586207120       -1.30210215599479       -0.03682761578324
C           -1.46982264913417       -2.64643102187190       -0.06029820460571
H            3.71247264356769        1.21471455160235        1.06488849150277
H            4.00791497605742        1.03430808813993       -0.67357694370751
H            2.69910007168542        2.09770118228144       -0.09130154882931
H            3.56654120610678       -1.63682992603973        0.04233140067262
H           -1.67107961066214        3.09322851271934       -0.02552706933167
H           -2.82428953597071        2.09428624779827       -0.95318082946668
H           -2.87644029173232        2.07745725625962        0.81450067533302
H           -1.17061996399332       -3.19584890659852        0.83242232437030
H           -1.14560257411436       -3.17511610292205       -0.95688275822323
H           -2.55549792440841       -2.55659984320617       -0.07459039797972
H            1.38130855184625       -2.94313852034425       -0.01389874181052
25
 energy: -1.959175826333 xtb: 6.6.1 (8d0f1dd)
C            3.24299539886236        1.18712303896534        0.08965020539192
N            2.30543380378126        0.10631838703176        0.03048351901177
C            2.59872578705996       -1.21995207866864        0.01483033812330
N            1.42961698218097       -1.93093554323850       -0.01836779126647
C            0.39437621080506       -1.05291400046627       -0.01128762046649
C            0.92740976569845        0.22963038178493        0.00671131590280
C            0.10436901338921        1.40624184234288       -0.01101679358225
O            0.50391108967359        2.57119250714596       -0.00629309503130
N           -1.25678018316105        1.06197278971693       -0.04051449602913
C           -2.21083271031098        2.16788547083188       -0.05036948302381
C           -1.81971227643867       -0.19404058312959       -0.05733077067587
O           -3.01742889515233       -0.36667225289524       -0.08299433047295
N           -0.93608741229564       -1.31059009724771       -0.01888545688819
C           -1.47217941532706       -2.67334661629781       -0.01952158357145
H            3.72171093520687        1.22293131404734        1.07197909886488
H            4.01203211011496        1.05792671021157       -0.67332715480877
H            2.70047808222278        2.11564860340962       -0.07717145421071
H            3.57750991486039       -1.64267472971889        0.02796077835727
H           -1.64772631954254        3.09949442129389       -0.02589272678387
H           -2.82351686332310        2.12446286816906       -0.95033840963681
H           -2.86436480488120        2.10223140815371        0.81902825010949
H           -1.27346675768286       -3.37187322804026        0.85931636395295
H           -1.09564758382673       -3.21256402267044       -0.87993808731086
H           -2.55551298034403       -2.55425031948923       -0.12894086174216
H            1.36690177636653       -2.93421766907025       -0.04073585806601
25
 energy: 7.479050560549 xtb: 6.6.1 (8d0f1dd)
C            3.24621839187388        1.20711998319803        0.09644527585411
N            2.30665538564582        0.13501844463720        0.01284335666046
C            2.61043636450525       -1.21684624746494       -0.01320568713724
N            1.42188734885824       -1.91771119869349       -0.04728476360025
C            0.39503698292181       -1.04874258051762       -0.01425552298765
C            0.91591976460489        0.24481506059847       -0.00533339840430
C            0.11528628687735        1.40280536828880       -0.01768489185813
O            0.50100292030531        2.58470564622421       -0.01061359036965
N           -1.26429177229298        1.06013611743232       -0.05047267106436
C           -2.19661126684728        2.18664800351747       -0.05156026619357
C           -1.81873994825699       -0.19168623576307       -0.05551433838733
O           -3.02329509665118       -0.35384716855838       -0.10517788986765
N           -0.94760729614142       -1.33079876892016        0.01715149435987
C           -1.48238699277565       -2.71012853221093        0.02527516672205
H            3.73129608617759        1.22768726825053        1.07883915763393
H            4.01621583359324        1.09395050539381       -0.67063484547517
H            2.70470464995441        2.13931168847416       -0.05238988370738
H            3.58376759833196       -1.63660742236972        0.00257968333259
H           -1.61014876526085        3.10729141754032       -0.02838886248786
H           -2.82072894911718        2.16882586730020       -0.94541731283991
H           -2.84320664863072        2.14051651576553        0.82535508069331
H           -1.42705311772164       -3.55435690553481        0.90493997109352
H           -1.00374320439158       -3.27341337466103       -0.77323849111793
H           -2.55709135284196       -2.55759766057060       -0.21520405456009
H            1.35869146521588       -2.91806718918425       -0.08001882014408
25
 energy: 15.317341456042 xtb: 6.6.1 (8d0f1dd)
C            3.24346925409185        1.21571475227401        0.10342082842496
N            2.30237486216115        0.14500120921665       -0.00509438395675
C            2.60868701074986       -1.21133755171234       -0.04236447525739
N            1.41833288524439       -1.90809631423140       -0.07054959378040
C            0.38794920978865       -1.04916887926599       -0.01722207904875
C            0.90710458351171        0.24969549855984       -0.01215623683162
C            0.11853005501597        1.40576433627047       -0.02002371851968
O            0.49582453707273        2.58993461920807       -0.01235333464610
N           -1.27028452108075        1.06281968179516       -0.05585052172781
C           -2.18451805219787        2.20442816257505       -0.05244808801172
C           -1.82256584884490       -0.19026260949550       -0.05397506765308
O           -3.02705723091826       -0.34547025520018       -0.12332042357737
N           -0.95896638136116       -1.34618204057467        0.04405087630330
C           -1.49295863727106       -2.73936227157015        0.05010864874768
H            3.73127319069525        1.21969169999251        1.08586559195257
H            4.01579083801149        1.12206721102422       -0.66494231613442
H            2.70658924286228        2.15486765594304       -0.02592003368438
H            3.58289687724380       -1.62853353474859       -0.02396514734441
H           -1.57614007988256        3.11282610636023       -0.03184460675315
H           -2.81426669919850        2.20622427565146       -0.94235310962678
H           -2.82456973703649        2.17532849961614        0.83010439470762
H           -1.52665113307570       -3.63575149921485        0.94617868942305
H           -0.91982974863063       -3.32307711022640       -0.68146465607624
H           -2.54764707855949       -2.58909769241042       -0.28290981523745
H            1.35884726954445       -2.90899534766428       -0.11393752554441
25
 energy: 18.106855601695 xtb: 6.6.1 (8d0f1dd)
C            3.23964180725667        1.21588211135961        0.10803819932488
N            2.29862455252454        0.14452964379790       -0.01791029466047
C            2.60277475517338       -1.20704397299752       -0.06083236906579
N            1.41738293455739       -1.90316755791019       -0.08134184532857
C            0.38086718418898       -1.04991772647847       -0.02016132432454
C            0.90316714089398        0.24951059238536       -0.01358107710569
C            0.11904790533381        1.41044051120354       -0.02005232849759
O            0.49476002721813        2.59075728286922       -0.01263304454064
N           -1.27305796962809        1.06690829374053       -0.05591772950123
C           -2.17922114676047        2.21420094624401       -0.05424245743936
C           -1.82701054854848       -0.18772780624473       -0.05106581567932
O           -3.02877879912639       -0.34105273299340       -0.13214703637866
N           -0.96535167276284       -1.35104058554427        0.05786869082846
C           -1.49695436035684       -2.75219441016317        0.05614271878444
H            3.72610432461269        1.20850227480917        1.09102267339070
H            4.01352404689793        1.13393315750249       -0.65973963600904
H            2.70530642121291        2.15839335759638       -0.01055591682354
H            3.57894824153286       -1.62327387932424       -0.03647576394507
H           -1.56091040388158        3.11588706650357       -0.03718187084102
H           -2.80943758482649        2.22343743455933       -0.94267576188212
H           -2.81593982793146        2.19525616322077        0.83033667032767
H           -1.55838826446261       -3.66433482929043        0.95910600014727
H           -0.88611214714880       -3.33708059602729       -0.62944180788894
H           -2.52809534496695       -2.61665875339687       -0.30886745746602
H            1.36132339693393       -2.90511738324926       -0.13065751927856
25
 energy: 18.466587355876 xtb: 6.6.1 (8d0f1dd)
C            3.23730153739901        1.21245944407437        0.10688492704175
N            2.29697915647836        0.14069286457733       -0.02760644429813
C            2.59731478352926       -1.20474724282142       -0.07160538548549
N            1.41713306189521       -1.90180231613911       -0.08166235389705
C            0.37606201693241       -1.05048749785242       -0.02003816932811
C            0.90231437298040        0.24788844545354       -0.01128325924203
C            0.11954280037863        1.41329573509412       -0.01875386785277
O            0.49660418958431        2.58998724837127       -0.01103236534498
N           -1.27338804144747        1.06929142151362       -0.05214430330053
C           -2.17906423810032        2.21614580609417       -0.05243279067354
C           -1.83040618696561       -0.18521877249778       -0.04948444273142
O           -3.02957771016716       -0.33953322784199       -0.13466757773287
N           -0.96768147239771       -1.34981507147116        0.06526417198692
C           -1.49882258534818       -2.75363397755450        0.05363444295472
H            3.72191160636992        1.20010547800654        1.08992148309210
H            4.01130164351512        1.13394159826438       -0.66014373693382
H            2.70331913401672        2.15498911378906       -0.00894561227568
H            3.57461496913253       -1.62144455496279       -0.03882981212152
H           -1.56059478213722        3.11671564782707       -0.03781921596812
H           -2.80879617812152        2.22515440504415       -0.94041424861928
H           -2.81429382797153        2.20018271699660        0.83242888409388
H           -1.57430325377629       -3.65956853614765        0.96912436652550
H           -0.85548849558838       -3.33497119506973       -0.59569270001269
H           -2.51268671890422       -2.62630928611472       -0.34356184414903
H            1.36291888664993       -2.90428964446091       -0.13410624958054
25
 energy: 17.852678844716 xtb: 6.6.1 (8d0f1dd)
C            3.23713274455093        1.21033178295253        0.10486819192478
N            2.29689315017050        0.13870537266040       -0.03213304959679
C            2.59504829526954       -1.20452835317894       -0.07602283002786
N            1.41630173056243       -1.90261909668954       -0.07865044839180
C            0.37435636768615       -1.05051870894745       -0.01944243448558
C            0.90243903214090        0.24719722850131       -0.00934077888494
C            0.11961569319175        1.41318685759723       -0.01826974035834
O            0.49766082164946        2.58942427886579       -0.01072732048016
N           -1.27290013383998        1.06931877165269       -0.04856125213036
C           -2.18009980467199        2.21499228983071       -0.05087889122146
C           -1.83205065618002       -0.18381298416344       -0.04701085131984
O           -3.03049261231115       -0.33934256647857       -0.13415108630201
N           -0.96827510383821       -1.34697779891875        0.06812671689128
C           -1.49919881314449       -2.75040517178769        0.04860728237685
H            3.72039572036720        1.19774474209265        1.08818345698206
H            4.01163731704628        1.13059786474355       -0.66126656793027
H            2.70310372642932        2.15230808556248       -0.01235139288475
H            3.57206941704270       -1.62244534519358       -0.03419458282040
H           -1.56385786140597        3.11701656648706       -0.03703948557755
H           -2.80986634501578        2.22114074225627       -0.93910274011610
H           -2.81572551527222        2.19840476530103        0.83363597682081
H           -1.57475231066718       -3.64919664060946        0.96773936247122
H           -0.84485061577106       -3.32873359593124       -0.58430624342321
H           -2.50445267951942       -2.62777591746643       -0.35866999250896
H            1.36208310346651       -2.90498456696656       -0.13200740285939
25
 energy: 17.451755362542 xtb: 6.6.1 (8d0f1dd)
C            3.23747867382889        1.20968433441545        0.10319548794210
N            2.29710778160400        0.13839741623859       -0.03442622099848
C            2.59481858398300       -1.20512500446263       -0.07928463111377
N            1.41552975437443       -1.90368439134774       -0.07646960495477
C            0.37415744227598       -1.05056151633927       -0.01842762187032
C            0.90249669596366        0.24708616845608       -0.00865219528055
C            0.11938317828040        1.41238132575588       -0.01818887901617
O            0.49763897387008        2.58931690674018       -0.01086776665695
N           -1.27273177820525        1.06887701500098       -0.04673925985514
C           -2.18080910837179        2.21411634609978       -0.04948431758671
C           -1.83248535569811       -0.18329105404333       -0.04621020463932
O           -3.03099974665446       -0.33953620430146       -0.13292954351842
N           -0.96856256160101       -1.34536116759437        0.07024845023086
C           -1.49930788343666       -2.74815146090173        0.04660593471171
H            3.72010368822074        1.19763559878213        1.08687621337292
H            4.01247231397597        1.12859707113888       -0.66246855365638
H            2.70346526177961        2.15150904107234       -0.01525912141423
H            3.57111610396848       -1.62395022993422       -0.02990967253590
H           -1.56587667905132        3.11722548664830       -0.03544905984255
H           -2.81066755426701        2.21862152891725       -0.93799204954127
H           -2.81701694712831        2.19629178739909        0.83476559464351
H           -1.57777915152560       -3.64222351762976        0.96770687589585
H           -0.83613677291261       -3.32636409055479       -0.57898228203342
H           -2.50215397279486       -2.62666283858882       -0.36972599504485
H            1.36097372745796       -2.90579994879470       -0.13089768109045
25
 energy: 17.119019907822 xtb: 6.6.1 (8d0f1dd)
C            3.23774947716533        1.20971915936989        0.10256928825026
N            2.29726131279972        0.13866318821202       -0.03552823394661
C            2.59531702906329       -1.20563997313700       -0.08247197275580
N            1.41515053983216       -1.90451669923535       -0.07519928115819
C            0.37457579195747       -1.05070083282083       -0.01779193704501
C            0.90256974907357        0.24701186240821       -0.00862914523314
C            0.11893781341319        1.41151298761654       -0.01835788167115
O            0.49720916324992        2.58905958599814       -0.01148753414855
N           -1.27265099295942        1.06842917327520       -0.04594678881837
C           -2.18111360218115        2.21364100615667       -0.04914841061216
C           -1.83230308539924       -0.18336349076406       -0.04547306052016
O           -3.03105164513774       -0.34005560567337       -0.13183687081261
N           -0.96855660525215       -1.34457824816743        0.07183003507614
C           -1.49887525021140       -2.74692307170700        0.04573415265654
H            3.71979786176764        1.19823235125242        1.08670004206912
H            4.01338930056653        1.12784608317689       -0.66256600579928
H            2.70388919431765        2.15162560912810       -0.01673733449035
H            3.57085468743151       -1.62503228523394       -0.02512300206846
H           -1.56673239586759        3.11728549500895       -0.03473371411549
H           -2.81082015588865        2.21729765255967       -0.93799396270107
H           -2.81796535707231        2.19495615494653        0.83480882101603
H           -1.57763553632363       -3.63922430010313        0.96481841171846
H           -0.83665926159389       -3.32419857072495       -0.57884908182383
H           -2.50053388994299       -2.62560660380043       -0.37069522697403
H            1.36041052512837       -2.90641202556969       -0.13085740994502
25
 energy: 16.873107472478 xtb: 6.6.1 (8d0f1dd)
C            3.23775997818334        1.20988024000003        0.10217592264219
N            2.29715473020074        0.13909271010037       -0.03655237391477
C            2.59595828351405       -1.20599056118846       -0.08751070273307
N            1.41490416953887       -1.90502417968913       -0.07456752852834
C            0.37500338571318       -1.05091269983372       -0.01688061105732
C            0.90251924234564        0.24683068188531       -0.00874667660152
C            0.11839531677977        1.41093113814571       -0.01833427796669
O            0.49680737983528        2.58871443699905       -0.01200883245539
N           -1.27269872589660        1.06831680684002       -0.04559611961402
C           -2.18119268306134        2.21365224404921       -0.04899655989627
C           -1.83193909446438       -0.18361975144293       -0.04492071906850
O           -3.03093687172802       -0.34047048851294       -0.13123667003490
N           -0.96864411054900       -1.34430589912371        0.07376442135037
C           -1.49853968216179       -2.74669050586752        0.04616577816518
H            3.71941931877118        1.19851392111945        1.08667461131740
H            4.01388432642546        1.12786141618093       -0.66255447727477
H            2.70417056028741        2.15202054931054       -0.01733931553369
H            3.57068730019707       -1.62566059608152       -0.01981393251678
H           -1.56676967390330        3.11727495810952       -0.03415058200130
H           -2.81061182391143        2.21725474139541       -0.93808856589961
H           -2.81841561790609        2.19446335641142        0.83476806343497
H           -1.57919925662095       -3.63729696938688        0.96290035790674
H           -0.83590778388516       -3.32388673291995       -0.57854126484084
H           -2.49985612248297       -2.62518059071561       -0.37134122893344
H            1.36026212271527       -2.90673962361255       -0.13223481979836
25
 energy: 16.525216107266 xtb: 6.6.1 (8d0f1dd)
C            3.23745871356672        1.21002812504119        0.10182677278180
N            2.29671428821694        0.13960430306562       -0.03801624291333
C            2.59675985105988       -1.20602240564745       -0.09774239272984
N            1.41485057979536       -1.90531019661575       -0.07415648895698
C            0.37549362355365       -1.05127848497238       -0.01529463578369
C            0.90242615171646        0.24633912208894       -0.00865595251149
C            0.11762457111554        1.41047399081195       -0.01798140050526
O            0.49650149846579        2.58799942628024       -0.01233256622034
N           -1.27273723659222        1.06837204751473       -0.04540284426206
C           -2.18111617561205        2.21383821647332       -0.04905203854191
C           -1.83129167159551       -0.18431881373832       -0.04424452383961
O           -3.03047620392067       -0.34106065466422       -0.13113059150172
N           -0.96860332338652       -1.34439306735448        0.07667450782847
C           -1.49809372876083       -2.74736491811749        0.04794244541283
H            3.71876046502744        1.19816985073812        1.08666806218146
H            4.01398811758345        1.12845732205123       -0.66248657007993
H            2.70434241156408        2.15257674423611       -0.01723843210151
H            3.57025783899657       -1.62567121109240       -0.01040061654350
H           -1.56625688248221        3.11704543528677       -0.03383110123918
H           -2.81006746627897        2.21790948423360       -0.93836297825867
H           -2.81856876045835        2.19455259245549        0.83452856948139
H           -1.58156372374521       -3.63505643365395        0.96060286374023
H           -0.83573383526002       -3.32403144729814       -0.57827260365651
H           -2.49914649005760       -2.62500942982388       -0.37126851402715
H            1.36069205542446       -2.90682099512679       -0.13533883160626
25
 energy: 16.303305539767 xtb: 6.6.1 (8d0f1dd)
C            3.23714525816608        1.20993988493717        0.10167164796626
N            2.29631166882326        0.13968317802488       -0.03880705335971
C            2.59696122195066       -1.20563745407760       -0.10639716968686
N            1.41495880572951       -1.90514165268863       -0.07432589407185
C            0.37552977150975       -1.05142352287172       -0.01413394491552
C            0.90240847694879        0.24595533265231       -0.00807825787052
C            0.11733047774967        1.41055041018469       -0.01742231635807
O            0.49662117814697        2.58755229270647       -0.01195854470095
N           -1.27266655278160        1.06847205014247       -0.04535252797743
C           -2.18095565369137        2.21390480182339       -0.04920424765480
C           -1.83099706038986       -0.18487897116308       -0.04395794387316
O           -3.03011100782366       -0.34125452854929       -0.13181546232782
N           -0.96840694859966       -1.34465080086415        0.07811786084195
C           -1.49802808817713       -2.74835947546277        0.04945835603689
H            3.71846380892388        1.19726173429016        1.08650238286109
H            4.01359561018027        1.12896481890148       -0.66261468497007
H            2.70433597445446        2.15272820931209       -0.01659250412344
H            3.56948147986440       -1.62487884733544       -0.00309300466864
H           -1.56577762625251        3.11681071087767       -0.03411451797575
H           -2.80975935188753        2.21836737357403       -0.93849071449812
H           -2.81827780655942        2.19509039312643        0.83438440400883
H           -1.58263643549632       -3.63364298833939        0.95977348460693
H           -0.83565629621742       -3.32452330380523       -0.57807361176677
H           -2.49880347066000       -2.62529848248188       -0.37076947292789
H            1.36114723402501       -2.90656256074202       -0.13767236644734
25
 energy: 16.207207732497 xtb: 6.6.1 (8d0f1dd)
C            3.23697611054091        1.20975568173350        0.10158113134966
N            2.29610013459800        0.13949068655269       -0.03895168712821
C            2.59686892967213       -1.20509129675666       -0.11350884931275
N            1.41513852899056       -1.90476097641533       -0.07491623728922
C            0.37536970577732       -1.05135011384392       -0.01325012743440
C            0.90252199558124        0.24578513513959       -0.00709577682996
C            0.11744200322036        1.41088139077230       -0.01677570905756
O            0.49687105819481        2.58742285911283       -0.01122350571656
N           -1.27251939752391        1.06847638250047       -0.04530394854519
C           -2.18078828087320        2.21378621203020       -0.04937658534070
C           -1.83096460013571       -0.18524746996215       -0.04392939167608
O           -3.02986141150213       -0.34121672442523       -0.13276529860637
N           -0.96802614499102       -1.34492788741934        0.07843297907295
C           -1.49817044847776       -2.74929918854456        0.05050462409546
H            3.71855602689331        1.19629517082522        1.08619270733287
H            4.01306951299243        1.12923034886396       -0.66293339385008
H            2.70430666946879        2.15262741126345       -0.01588525457015
H            3.56846027250695       -1.62371571182093        0.00263237867114
H           -1.56553315896044        3.11663352100416       -0.03476180457398
H           -2.80972908053083        2.21833780041933       -0.93848806737010
H           -2.81780697343697        2.19568860877408        0.83434861932601
H           -1.58269644874614       -3.63317510190535        0.96003444198241
H           -0.83595313775522       -3.32490360816937       -0.57809299986151
H           -2.49875072602350       -2.62553351585099       -0.37034972735959
H            1.36133352845619       -2.90616101170584       -0.13908462116083
25
 energy: 16.235352460302 xtb: 6.6.1 (8d0f1dd)
C            3.23703556998482        1.20954338312337        0.10149289573216
N            2.29614946163141        0.13910532396468       -0.03835117568470
C            2.59667739970311       -1.20460729832432       -0.11948820835705
N            1.41522165691296       -1.90434144156731       -0.07597534004740
C            0.37513763110854       -1.05104721351548       -0.01259984813743
C            0.90277582648431        0.24589922793257       -0.00573360794230
C            0.11791433616188        1.41131106802598       -0.01613242972211
O            0.49704204035580        2.58766168816482       -0.01034997952327
N           -1.27234036716223        1.06837546877936       -0.04517033720735
C           -2.18068399480492        2.21352751215196       -0.04949389881332
C           -1.83118184648114       -0.18525993332008       -0.04412865230179
O           -3.02979958182617       -0.34097996579481       -0.13364103014700
N           -0.96751591820934       -1.34505598730534        0.07756590050021
C           -1.49844747714510       -2.74982398530431        0.05071487320249
H            3.71901410655214        1.19568328652299        1.08579436671060
H            4.01265876096618        1.12906811865661       -0.66337492361160
H            2.70435156998644        2.15234259614231       -0.01551320995299
H            3.56729710682354       -1.62262030410091        0.00758104910869
H           -1.56566593359896        3.11661537616174       -0.03553470525948
H           -2.80997354697864        2.21773401038617       -0.93836887481939
H           -2.81737286452286        2.19608865466358        0.83442960232106
H           -1.58149043134018       -3.63365836327721        0.96106103473277
H           -0.83648807487419       -3.32517671274730       -0.57851920895389
H           -2.49897389303649       -2.62558734088781       -0.36968929273325
H            1.36087313124529       -2.90576856635921       -0.13954110294638
25
 energy: 16.324205395464 xtb: 6.6.1 (8d0f1dd)
C            3.23720454965480        1.20959612371240        0.10140455344444
N            2.29634875170750        0.13902405270274       -0.03769358123277
C            2.59683633166696       -1.20474026483677       -0.12006934648808
N            1.41513529056571       -1.90441951694550       -0.07645823231212
C            0.37525532526692       -1.05093175193149       -0.01252488201161
C            0.90291779560611        0.24607819121071       -0.00540714717601
C            0.11810698491772        1.41126538273732       -0.01609595672788
O            0.49681883885172        2.58787772218142       -0.01043837942656
N           -1.27232378942733        1.06829574189216       -0.04505151134187
C           -2.18074723607299        2.21346509675549       -0.04944448031065
C           -1.83127553531504       -0.18496776594709       -0.04422166654749
O           -3.02990421016567       -0.34097289595376       -0.13335079292130
N           -0.96738083972322       -1.34492149243051        0.07685973824904
C           -1.49841094909034       -2.74935428949056        0.05007275261088
H            3.71920715709260        1.19623372699254        1.08573262980162
H            4.01285592691563        1.12869519073574       -0.66344908100473
H            2.70444621933059        2.15231820896676       -0.01601473797702
H            3.56719224768152       -1.62285810754442        0.00859517995034
H           -1.56595965598442        3.11674861768957       -0.03545531412924
H           -2.81010185509870        2.21735282072858       -0.93834514267576
H           -2.81752033085178        2.19580075365262        0.83446296072146
H           -1.58054138573376       -3.63450701693516        0.96156679564173
H           -0.83695020276025       -3.32494659866552       -0.57908876024709
H           -2.49929635107011       -2.62523615369993       -0.36942672839266
H            1.36030158997201       -2.90586717340525       -0.13912497334940
