25
 energy: 0.000000000000 xtb: 6.6.1 (8d0f1dd)
C            3.23720163006194        1.16630919979326        0.08434469647475
N            2.29877817382611        0.07527477071623        0.03981603040599
C            2.58028210190900       -1.21425402444508        0.03006176031096
N            1.43813958087363       -1.93419271955128        0.00098261760884
C            0.39035688448383       -1.05887472636071       -0.00790371836672
C            0.93510056364412        0.21347819449412        0.01709077491437
C            0.09450143893243        1.40504303904423       -0.00410947031874
O            0.49712751527797        2.54126714362870       -0.00342325688240
N           -1.25076640035757        1.06271879480407       -0.03085478223738
C           -2.21907211982101        2.15522099834493       -0.05001256985998
C           -1.81739487048744       -0.20012725993278       -0.04692818574614
O           -2.99983886758376       -0.37846417018721       -0.07008878229737
N           -0.92618586207120       -1.30210215599479       -0.03682761578324
C           -1.46982264913417       -2.64643102187190       -0.06029820460571
H            3.71247264356769        1.21471455160235        1.06488849150277
H            4.00791497605742        1.03430808813993       -0.67357694370751
H            2.69910007168542        2.09770118228144       -0.09130154882931
H            3.56654120610678       -1.63682992603973        0.04233140067262
H           -1.67107961066214        3.09322851271934       -0.02552706933167
H           -2.82428953597071        2.09428624779827       -0.95318082946668
H           -2.87644029173232        2.07745725625962        0.81450067533302
H           -1.17061996399332       -3.19584890659852        0.83242232437030
H           -1.14560257411436       -3.17511610292205       -0.95688275822323
H           -2.55549792440841       -2.55659984320617       -0.07459039797972
H            1.38130855184625       -2.94313852034425       -0.01389874181052
25
 energy: -2.777056067602 xtb: 6.6.1 (8d0f1dd)
C            3.23835644540639        1.19176014825046        0.08531392295082
N            2.33295761139283        0.08081402203795        0.03779355584424
C            2.63080261106755       -1.26915462130731        0.03115420470477
N            1.43420391072023       -1.93488124511663        0.00124678781322
C            0.40570416294470       -1.04489600189227       -0.00812503465155
C            0.94562503814310        0.22853412229616        0.01539367288953
C            0.09882060921946        1.40394870518067       -0.00434627043249
O            0.48384577757944        2.57358175710110       -0.00286806755897
N           -1.26631841579395        1.06013971742921       -0.03087228731472
C           -2.23839427947634        2.15109116273149       -0.04956957247951
C           -1.82388088349613       -0.19295135812415       -0.04776606031574
O           -3.01977293097220       -0.38088401471975       -0.07145628854359
N           -0.92773303648895       -1.28823899675634       -0.03716765153703
C           -1.46393326229601       -2.63140787033878       -0.06047591761367
H            3.71048967703552        1.25472336726306        1.06815275827984
H            4.00578153750291        1.07592081870158       -0.67843948349329
H            2.67752996484031        2.11281357328906       -0.09043209874531
H            3.60924519977214       -1.84142821886307        0.04507969703869
H           -1.69143500325104        3.09096523458106       -0.02489166997714
H           -2.84707824981602        2.09490415289395       -0.95232007664565
H           -2.89918470516188        2.07737050177028        0.81429448819227
H           -1.15873721548931       -3.18107138263493        0.83180234795212
H           -1.13294211798705       -3.16062273914026       -0.95603084230783
H           -2.55008878542704       -2.54758928290264       -0.07540603854895
H            1.35835100796751       -2.93441294955788       -0.01303017935280
25
 energy: 8.317979483616 xtb: 6.6.1 (8d0f1dd)
C            3.23573041703950        1.21860388775999        0.08551113249833
N            2.37139737344261        0.07531929732648        0.03402233257824
C            2.68259808221338       -1.32626380669055        0.03274467847653
N            1.42825126058939       -1.92597329676071        0.00223120373104
C            0.42101713974878       -1.02827988078781       -0.00809677214035
C            0.96176560219148        0.24348859649653        0.01362373678249
C            0.10853666752926        1.39957248032113       -0.00410971710657
O            0.45660021996033        2.59074475553168       -0.00190155971806
N           -1.27980033968130        1.06129046435228       -0.03072589008189
C           -2.25727959096257        2.14982075280759       -0.04887836878438
C           -1.82256283704212       -0.18377805990592       -0.04851197874367
O           -3.02222374937169       -0.38363235540352       -0.07325695583070
N           -0.92629024665254       -1.26937291921882       -0.03737079328505
C           -1.45337049410103       -2.61265931873464       -0.06075158489645
H            3.70641032977270        1.31044692464447        1.06869840715406
H            4.00521154820688        1.13867975932463       -0.68175718106151
H            2.64407059245814        2.12545256576606       -0.08948858384563
H            3.62791994719944       -2.09767059092942        0.04807949582453
H           -1.71839308399846        3.09489357480777       -0.02391766224304
H           -2.87109391021383        2.09383743423882       -0.94998809328219
H           -2.92293167661561        2.07522459312229        0.81303506213052
H           -1.14390275222338       -3.16208597462265        0.83143566070663
H           -1.11676165825046       -3.14196150499403       -0.95543221437862
H           -2.54018028261617       -2.53615422392289       -0.07665053920242
H            1.33749610931351       -2.92051455235674       -0.01150991913453
25
 energy: 17.972129199027 xtb: 6.6.1 (8d0f1dd)
C            3.22745389748356        1.23139696371147        0.08474348244944
N            2.38818935396267        0.06384955589880        0.03184870229334
C            2.70476299283038       -1.36003366842679        0.03391759781514
N            1.42895309384804       -1.92644492339224        0.00379545696998
C            0.42888298415010       -1.02475152131744       -0.00749610937402
C            0.97219079693199        0.24669180880248        0.01347481484255
C            0.11820348076095        1.40180688890289       -0.00339807503496
O            0.44582131458560        2.59524386817161       -0.00097978057531
N           -1.28129976444040        1.06842555044746       -0.03059259088973
C           -2.26511996154014        2.15238566935453       -0.04838346415368
C           -1.81828017890750       -0.17792554606131       -0.04911054568708
O           -3.01702963967579       -0.38348399804179       -0.07493210091865
N           -0.92108321577559       -1.25930655886454       -0.03724418608802
C           -1.44573563012535       -2.60190795920332       -0.06095739871151
H            3.69710971218029        1.34629384531575        1.06688951508382
H            4.00086430151820        1.18428663464625       -0.68279870614127
H            2.61284626742789        2.12529465448145       -0.08965990104296
H            3.63027818450872       -2.23542031319031        0.04857392253668
H           -1.73680458847477        3.10273880243277       -0.02309708902195
H           -2.88143779290316        2.09206379631905       -0.94828055678270
H           -2.93305168515923        2.07246276211905        0.81214333822041
H           -1.13535009119694       -3.14865276544122        0.83218516584300
H           -1.10664197182370       -3.12870963312438       -0.95581794807918
H           -2.53274617065001       -2.52624411141575       -0.07784302805140
H            1.33123897842042       -2.92103119995242       -0.00994661935465
25
 energy: 19.934551459634 xtb: 6.6.1 (8d0f1dd)
C            3.22375135786874        1.23353179046235        0.08448067078565
N            2.38871137500094        0.06198765466758        0.03135542187110
C            2.70677686328307       -1.36418191745180        0.03433305612467
N            1.43173728767580       -1.92656211866497        0.00433913162704
C            0.42961038723442       -1.02545169332159       -0.00720019887311
C            0.97370609223946        0.24653994632729        0.01367636308927
C            0.12067337319063        1.40490587448166       -0.00330882674006
O            0.44348934823675        2.59572985842175       -0.00081514645463
N           -1.28001295532941        1.07128049992175       -0.03059462271311
C           -2.26531407749493        2.15357644312311       -0.04830502284520
C           -1.81751155778624       -0.17717471038784       -0.04918896355934
O           -3.01518581190243       -0.38308235794846       -0.07535578346529
N           -0.91899746224009       -1.25772890443929       -0.03704044368779
C           -1.44460320444678       -2.60061836699717       -0.06094862151844
H            3.69245689531551        1.35042297048507        1.06603308116607
H            3.99676728165673        1.19159202158267       -0.68233794538641
H            2.60645798014310        2.12413336260600       -0.09012167499477
H            3.63277803038616       -2.25850432570820        0.04821997207942
H           -1.73968196589735        3.10491739609898       -0.02296954795024
H           -2.88154821977069        2.09167556835359       -0.94821952661958
H           -2.93307229979287        2.07189523781567        0.81228291430500
H           -1.13478299829288       -3.14661381792171        0.83238693252866
H           -1.10560681970938       -3.12664720041074       -0.95582975667725
H           -2.53171816220839       -2.52491352466505       -0.07812107826524
H            1.33333393057630       -2.92168108425864       -0.00971648767914
25
 energy: 20.769275574581 xtb: 6.6.1 (8d0f1dd)
C            3.22279269496722        1.23412604726370        0.08439577134014
N            2.38764066439156        0.06235712685371        0.03093072654336
C            2.70614974951384       -1.36339255726767        0.03466248518724
N            1.43357024115605       -1.92571875982941        0.00457988574470
C            0.42894087623535       -1.02596998359346       -0.00713138158953
C            0.97392886328712        0.24626828911151        0.01373451264886
C            0.12164973660820        1.40701063980762       -0.00340820610292
O            0.44157553216383        2.59629977542715       -0.00075671243175
N           -1.27912512663583        1.07196145117417       -0.03062827746764
C           -2.26496443652701        2.15358985363920       -0.04829878465075
C           -1.81798949192530       -0.17749099597503       -0.04919741054936
O           -3.01493017300006       -0.38280272163694       -0.07544812492047
N           -0.91835970167575       -1.25737520665997       -0.03690506595400
C           -1.44486123185351       -2.60073913879599       -0.06091559993385
H            3.69097339685591        1.35028909387403        1.06582376186331
H            3.99541293037686        1.19254417147722       -0.68193121319838
H            2.60584620060455        2.12378078149557       -0.09032149672169
H            3.63664845616732       -2.26529014141802        0.04796566330328
H           -1.74027837109180        3.10521875094640       -0.02296870370692
H           -2.88113044029679        2.09150982247608       -0.94824264410545
H           -2.93259968032905        2.07170545620540        0.81236432761771
H           -1.13524168787119       -3.14637081693671        0.83244226037867
H           -1.10595910980619       -3.12635587447516       -0.95579892182400
H           -2.53201523112749       -2.52500449033428       -0.07814970766966
H            1.33454000774837       -2.92112197065709       -0.00976324765362
25
 energy: 21.242618489326 xtb: 6.6.1 (8d0f1dd)
C            3.22295587576228        1.23426923505859        0.08438807507930
N            2.38663232870126        0.06324691711934        0.03053509636766
C            2.70504984583625       -1.36150176056250        0.03498944284841
N            1.43421849938982       -1.92492185292583        0.00471389521606
C            0.42807131939886       -1.02611583568897       -0.00716317593883
C            0.97371363733296        0.24609747497111        0.01371941527719
C            0.12200505927125        1.40783436334374       -0.00348929496728
O            0.44056277210919        2.59682497429225       -0.00069748902786
N           -1.27886628841664        1.07159123058120       -0.03065186717984
C           -2.26474079613532        2.15325143577050       -0.04831979651837
C           -1.81877177746094       -0.17791107222067       -0.04919265495196
O           -3.01543226881892       -0.38260726540156       -0.07543595810080
N           -0.91855082662706       -1.25740990813331       -0.03683516137470
C           -1.44535589207373       -2.60114035999119       -0.06090100659041
H            3.69102336007175        1.34943679636691        1.06595510385435
H            3.99552567616774        1.19165518454235       -0.68181979409629
H            2.60668810218738        2.12413428721846       -0.09032025319824
H            3.64122178976552       -2.26701105520935        0.04776222796542
H           -1.74021370546962        3.10498560287634       -0.02298679389441
H           -2.88093279183603        2.09148463367126       -0.94827061252921
H           -2.93240110882554        2.07168579489085        0.81235564436881
H           -1.13565151541068       -3.14663049290060        0.83243860996101
H           -1.10640010279254       -3.12656503161121       -0.95580301742773
H           -2.53246534530690       -2.52529748272259       -0.07811280076718
H            1.33432882111582       -2.92035721116308       -0.00982393822780
25
 energy: 21.636997758723 xtb: 6.6.1 (8d0f1dd)
C            3.22328768159108        1.23428997702962        0.08441007501572
N            2.38595172147144        0.06403851918291        0.03018026889767
C            2.70399656782198       -1.35976240818038        0.03538653543933
N            1.43414773833761       -1.92454165756460        0.00481028381063
C            0.42747732942264       -1.02601035788005       -0.00723414143665
C            0.97330434636395        0.24613725640220        0.01365148127970
C            0.12198292904895        1.40785053775827       -0.00355168930593
O            0.44033620282770        2.59716659311473       -0.00067139387946
N           -1.27914179741063        1.07104659961704       -0.03066929988517
C           -2.26480575673383        2.15304371420127       -0.04833055895047
C           -1.81938264924083       -0.17808343661470       -0.04919027704663
O           -3.01605909739364       -0.38256391158019       -0.07539471536100
N           -0.91900724589338       -1.25753951343750       -0.03681086760656
C           -1.44568586419598       -2.60143420741967       -0.06090686666052
H            3.69143289245589        1.34874454057969        1.06614738778792
H            3.99596935495025        1.19052833229823       -0.68185045638760
H            2.60764091980452        2.12482227332114       -0.09024951393434
H            3.64602767357375       -2.26773781379622        0.04759047743924
H           -1.74001631061095        3.10473572692315       -0.02298482961932
H           -2.88102289682005        2.09160235435713       -0.94829231179210
H           -2.93250573996500        2.07180212776311        0.81234928854978
H           -1.13582253069387       -3.14692697979377        0.83240445433750
H           -1.10663016252307       -3.12681639786279       -0.95582948300096
H           -2.53273408865761       -2.52551083256432       -0.07808337021346
H            1.33347345040528       -2.91985243368229       -0.00984658133004
25
 energy: 21.898541180624 xtb: 6.6.1 (8d0f1dd)
C            3.22336610064158        1.23427121691813        0.08443189595498
N            2.38581152201516        0.06430130779783        0.03000568252410
C            2.70345381547991       -1.35909258386672        0.03572696209219
N            1.43379299447302       -1.92467520295827        0.00485413557020
C            0.42744264078484       -1.02583638789754       -0.00729078497607
C            0.97294793524919        0.24635176248793        0.01357303578707
C            0.12169910124795        1.40750816966124       -0.00358164035896
O            0.44065111844154        2.59720385283648       -0.00069841798047
N           -1.27963611566835        1.07089601676220       -0.03067348782720
C           -2.26507376489241        2.15314563024386       -0.04832244459622
C           -1.81948656020485       -0.17792881431969       -0.04918846357767
O           -3.01630444678787       -0.38268650016526       -0.07536523610715
N           -0.91928030999900       -1.25762903595811       -0.03682194633585
C           -1.44570852984227       -2.60143517419576       -0.06092208427225
H            3.69159639001826        1.34861562407235        1.06622984975059
H            3.99616389623114        1.19014459929405       -0.68190000647893
H            2.60793091496245        2.12524094028398       -0.09020204419721
H            3.64898787917548       -2.26853882594156        0.04746370847987
H           -1.73991945587877        3.10469199347791       -0.02296684048571
H           -2.88127035729588        2.09178549424316       -0.94829675185009
H           -2.93276049618958        2.07197771023577        0.81236691234117
H           -1.13578283811191       -3.14701432854258        0.83237449637579
H           -1.10661715015561       -3.12688740539410       -0.95585324918224
H           -2.53274260253181       -2.52553149065399       -0.07808434868148
H            1.33295298677401       -2.91984996624929       -0.00982503582113
25
 energy: 22.056769953443 xtb: 6.6.1 (8d0f1dd)
C            3.22325043506845        1.23424349019783        0.08444103912533
N            2.38600105900753        0.06417875131227        0.02996797264923
C            2.70322322969006       -1.35915388539157        0.03603419036003
N            1.43345869017016       -1.92503309625287        0.00485955597107
C            0.42773619796337       -1.02570798536767       -0.00733705663927
C            0.97268660987210        0.24661645127043        0.01348561231245
C            0.12126400365231        1.40718199129265       -0.00360195405345
O            0.44108561801000        2.59706207423818       -0.00075548203058
N           -1.28007594865633        1.07110587561017       -0.03066734423999
C           -2.26537034028716        2.15341590154309       -0.04830037014432
C           -1.81925613458843       -0.17762515437795       -0.04918914569849
O           -3.01620459914094       -0.38286897034226       -0.07535026788080
N           -0.91933369104997       -1.25768048607464       -0.03685629492339
C           -1.44558957446816       -2.60126160621644       -0.06093898651202
H            3.69150293533753        1.34883335707576        1.06621083561116
H            3.99610392010493        1.19038899609276       -0.68191772051801
H            2.60771664678263        2.12528756062306       -0.09018901258043
H            3.65028973081295       -2.26949512649985        0.04734476883403
H           -1.73992255090161        3.10479237159956       -0.02294255023589
H           -2.88152000798630        2.09197273711112       -0.94828058398220
H           -2.93300609654404        2.07215548159948        0.81239787927211
H           -1.13570486952348       -3.14694772772670        0.83235808391344
H           -1.10653929483533       -3.12683220524139       -0.95586815160313
H           -2.53265741878153       -2.52545318941827       -0.07810275381588
H            1.33307611822747       -2.92014700448474       -0.00976836704372
