25
 energy: -42.498679083197 xtb: 6.6.1 (8d0f1dd)
C            3.17591218293866        1.30469979646009        0.08038518793688
N            2.26602320248762        0.18946891805951        0.03142768283284
C            2.62799917929805       -1.10096503168960        0.02179635083046
N            1.45265996929768       -1.80304301105125        0.00133013135233
C            0.38213010515538       -0.96360186918812       -0.00655052306271
C            0.88625755926802        0.31826304559450        0.01609910451420
C            0.02859164076399        1.46871040289605       -0.00290460694979
O            0.36723114908256        2.63553635005310       -0.00130148382936
N           -1.32406533934131        1.09802878083489       -0.03123208930066
C           -2.31144200454052        2.16878937044976       -0.04862193890286
C           -1.85074572020738       -0.17884330876381       -0.04940791503942
O           -3.04456526959889       -0.37572648554640       -0.07535008571939
N           -0.94922652980955       -1.23866386308482       -0.03820327592398
C           -1.44973578658417       -2.59724860456010       -0.06160489127078
H            3.65395039856253        1.35783102026341        1.05970174544748
H            3.95068981053798        1.18323649170132       -0.67513574107002
H            2.62453487540513        2.22676475746662       -0.09681164351870
H            4.38070964898952       -3.38282671205143        0.06115664602504
H           -1.77643798226080        3.11529020916603       -0.02311147958979
H           -2.91772956697736        2.10240125782379       -0.95168450612386
H           -2.96834750868655        2.08242925116500        0.81634509653190
H           -1.12946045399002       -3.13914445894487        0.82983666547745
H           -1.10157024396620       -3.11881427555776       -0.95479910494695
H           -2.53741265840698       -2.54137098399548       -0.07782736563479
H            1.42708038865481       -2.80869399205179       -0.01031503972462
