25
 energy: 0.000000000000 xtb: 6.6.1 (8d0f1dd)
C            3.23720163006194        1.16630919979326        0.08434469647475
N            2.29877817382611        0.07527477071623        0.03981603040599
C            2.58028210190900       -1.21425402444508        0.03006176031096
N            1.43813958087363       -1.93419271955128        0.00098261760884
C            0.39035688448383       -1.05887472636071       -0.00790371836672
C            0.93510056364412        0.21347819449412        0.01709077491437
C            0.09450143893243        1.40504303904423       -0.00410947031874
O            0.49712751527797        2.54126714362870       -0.00342325688240
N           -1.25076640035757        1.06271879480407       -0.03085478223738
C           -2.21907211982101        2.15522099834493       -0.05001256985998
C           -1.81739487048744       -0.20012725993278       -0.04692818574614
O           -2.99983886758376       -0.37846417018721       -0.07008878229737
N           -0.92618586207120       -1.30210215599479       -0.03682761578324
C           -1.46982264913417       -2.64643102187190       -0.06029820460571
H            3.71247264356769        1.21471455160235        1.06488849150277
H            4.00791497605742        1.03430808813993       -0.67357694370751
H            2.69910007168542        2.09770118228144       -0.09130154882931
H            3.56654120610678       -1.63682992603973        0.04233140067262
H           -1.67107961066214        3.09322851271934       -0.02552706933167
H           -2.82428953597071        2.09428624779827       -0.95318082946668
H           -2.87644029173232        2.07745725625962        0.81450067533302
H           -1.17061996399332       -3.19584890659852        0.83242232437030
H           -1.14560257411436       -3.17511610292205       -0.95688275822323
H           -2.55549792440841       -2.55659984320617       -0.07459039797972
H            1.38130855184625       -2.94313852034425       -0.01389874181052
25
 energy: 0.027859729545 xtb: 6.6.1 (8d0f1dd)
C            3.23021916121236        1.17673134401998        0.08574111728943
N            2.29096209218803        0.09319772540807        0.03787637573329
C            2.59469347275129       -1.23231020961227        0.03108118338130
N            1.46220295359613       -1.99727576551762        0.00093823383818
C            0.40347133705299       -1.09244940532052       -0.00855599820023
C            0.91618437846826        0.20792997138223        0.01508860656131
C            0.09187823783768        1.39777965199503       -0.00476587229895
O            0.49051202562698        2.56402141690920       -0.00309070825462
N           -1.27071780467936        1.06579650813621       -0.03122030480064
C           -2.23217942250706        2.16769418188364       -0.05005283649293
C           -1.82624599914557       -0.18848318952276       -0.04776981520104
O           -3.02392763157776       -0.36553803998687       -0.07141045356786
N           -0.93700619980460       -1.29985458742464       -0.03732123577469
C           -1.48744397048780       -2.62981749731066       -0.06010211497878
H            3.71337646379600        1.21783373999308        1.06583789767450
H            3.99832542474720        1.03547535493610       -0.67654397091406
H            2.70068309327586        2.11180071214004       -0.08831105295618
H            3.57360135881797       -1.63892966864482        0.04467551980359
H           -1.67848487940420        3.10459326456209       -0.02561262083710
H           -2.84125186104307        2.11815622540126       -0.95276331902327
H           -2.89356662394887        2.10145591986030        0.81378222140776
H           -1.17709217284219       -3.17401891948853        0.83253823846589
H           -1.15284886288847       -3.15374313917583       -0.95617921347927
H           -2.57225792650661       -2.53336039739955       -0.07390968657194
H            1.53912802340100       -3.06765659505113       -0.01291629465640
25
 energy: 16.016247815234 xtb: 6.6.1 (8d0f1dd)
C            3.22202365436333        1.18059097672508        0.08660821500504
N            2.27651918233338        0.10753738809934        0.03437863636252
C            2.59854919777906       -1.24318481519989        0.03311630427088
N            1.48327217776648       -2.06508944890349        0.00131274326102
C            0.41320404119868       -1.13397504774204       -0.00948473378086
C            0.88994578233351        0.19248338941027        0.01236997893446
C            0.08808757013396        1.37889105060604       -0.00529344064667
O            0.47873403128105        2.56145779546578       -0.00224328553955
N           -1.29814007719682        1.07678379363975       -0.03165531012193
C           -2.24867408046048        2.18887175547343       -0.05018376489432
C           -1.83393091571697       -0.16787669845392       -0.04862829908150
O           -3.03815954968492       -0.34976065714317       -0.07314859964093
N           -0.95217554576457       -1.28748775590269       -0.03779196479356
C           -1.51072060564189       -2.60592274441150       -0.05984520651257
H            3.71350420314177        1.21761364594161        1.06517335265098
H            3.98757618444641        1.03565426071264       -0.68026188604948
H            2.70438547793459        2.12324689380544       -0.08349538824929
H            3.57595870189403       -1.63045727837855        0.04795643758506
H           -1.68765719334905        3.12303098239758       -0.02568514700446
H           -2.86127331014977        2.14824609319835       -0.95228944204890
H           -2.91371624225926        2.13168835578841        0.81282201865505
H           -1.18944307480207       -3.14848482861564        0.83078394675232
H           -1.16643316634242       -3.12887478352274       -0.95365828732876
H           -2.59454788381874       -2.50957676110892       -0.07305972638226
H            1.77532610851691       -3.20637695970912       -0.01076325525499
25
 energy: 29.921120812402 xtb: 6.6.1 (8d0f1dd)
C            3.21716019931992        1.17934080751684        0.08648667476613
N            2.27162725599001        0.10656866051764        0.03230990418558
C            2.59739763264539       -1.24755795989156        0.03464834402234
N            1.49643487864183       -2.09580326695184        0.00178567722629
C            0.41866076892753       -1.15460351786987       -0.01024078485837
C            0.88125987399296        0.17974619011655        0.01118137596305
C            0.08582528057365        1.36884677774058       -0.00516763840926
O            0.47373906240725        2.55048371805322       -0.00141248182370
N           -1.31243104918222        1.08815617000708       -0.03197577887672
C           -2.25954771440258        2.20301785900194       -0.05043354662516
C           -1.83785269871466       -0.15734313274807       -0.04936585116288
O           -3.04085702609193       -0.34805195301672       -0.07460441061980
N           -0.95615590494337       -1.27727822035134       -0.03805600442689
C           -1.52477132890781       -2.59196521737155       -0.05956542416463
H            3.71083768853191        1.21580988461240        1.06390395872998
H            3.97999139527404        1.03773701460436       -0.68331272973193
H            2.70415840590167        2.12684519658962       -0.07950194792922
H            3.58121607241408       -1.62293328191103        0.05010877785185
H           -1.69787951583063        3.13647964819540       -0.02582932892661
H           -2.87445399146428        2.16606720254540       -0.95158518059283
H           -2.92693004448061        2.14951645784838        0.81149020107607
H           -1.20126618638795       -3.13378846135064        0.83059709520857
H           -1.17935705557367       -3.11479937246834       -0.95291078813489
H           -2.60846287658004       -2.49461804790071       -0.07220278665455
H            1.91387154587573       -3.28084455334573       -0.00931342994514
25
 energy: 36.556588556782 xtb: 6.6.1 (8d0f1dd)
C            3.21652777104980        1.17717530577958        0.08625922868050
N            2.27098197673799        0.10323301612962        0.03166995661967
C            2.59098146093080       -1.24830038444520        0.03582773384452
N            1.49603448612934       -2.10053064235225        0.00255947973719
C            0.41702006355586       -1.15574657325663       -0.01070594510059
C            0.88013082458418        0.17737394710107        0.01103063865616
C            0.08467465160043        1.36925266013008       -0.00490169863996
O            0.47232857168368        2.54732954599503       -0.00104088003568
N           -1.31668556163255        1.09514130782184       -0.03202752440806
C           -2.26326416594739        2.20823714922903       -0.05056961552260
C           -1.84140713715514       -0.15260160114579       -0.04960877475230
O           -3.04223986315628       -0.34796673676302       -0.07510660440063
N           -0.95790524008213       -1.26998683324682       -0.03816442880265
C           -1.52769920711297       -2.58718315151970       -0.05944433495478
H            3.70963960247757        1.21413658418796        1.06342855673911
H            3.97815635460249        1.03800836559982       -0.68448104334105
H            2.70382352428748        2.12585714451672       -0.07847071793971
H            3.57834476430578       -1.61958324445546        0.05040385738199
H           -1.70233076319217        3.14169658687402       -0.02595479932417
H           -2.87801609695334        2.17002645967206       -0.95181930269608
H           -2.93046521871103        2.15353960783723        0.81149424875328
H           -1.20327251332633       -3.12841399206028        0.83054362280597
H           -1.18187471171325       -3.10963771173656       -0.95267107369870
H           -2.61142226491068       -2.49253274865121       -0.07187425375635
H            1.97015335988407       -3.31949545906911       -0.00934242969781
25
 energy: 42.756775767374 xtb: 6.6.1 (8d0f1dd)
C            3.21449876540100        1.17378357325774        0.08577904744579
N            2.26356530918041        0.10298330830986        0.03118873131363
C            2.57332866378011       -1.24700543302084        0.03824906928026
N            1.49127657325738       -2.11073289171038        0.00568323007365
C            0.41099145936214       -1.15647284336894       -0.01133831664710
C            0.87222236458836        0.17830328779332        0.01097080167664
C            0.08204133711082        1.37242385801403       -0.00437048953900
O            0.46757355970965        2.54846519753620       -0.00110735016546
N           -1.32415916530725        1.10608861575957       -0.03194636731687
C           -2.26813654617405        2.21750426268998       -0.05064639524438
C           -1.84730940134935       -0.14304869394922       -0.04981392764782
O           -3.04667937493479       -0.34207821735070       -0.07535874001778
N           -0.96507107906639       -1.25760338484847       -0.03863710698435
C           -1.53242936111328       -2.57870122592201       -0.05945160296643
H            3.70760851727118        1.20984864074394        1.06255702359471
H            3.97510704292233        1.03385708969935       -0.68542270122150
H            2.70661779431487        2.12612138788709       -0.07825421261328
H            3.56429719959672       -1.61335001713267        0.05005882970349
H           -1.70659552359366        3.15026982907209       -0.02602151247742
H           -2.88226768668986        2.17740245692226       -0.95224029603388
H           -2.93472017646209        2.16103967858361        0.81180510840623
H           -1.20340171682181       -3.11890366614767        0.82940886088812
H           -1.18253077113577       -3.10052642322109       -0.95139638835225
H           -2.61618755162983       -2.49114481446719       -0.07172113024726
H            2.09257443571941       -3.40949497295781       -0.01094026876042
25
 energy: 37.473389732489 xtb: 6.6.1 (8d0f1dd)
C            3.21196101259690        1.16699875027609        0.08533414250200
N            2.24747123567713        0.10307218671495        0.03142600094366
C            2.53052934368920       -1.24265975117410        0.03948339779910
N            1.47113441469673       -2.11599854825864        0.00950140674002
C            0.39628338086675       -1.14550629717478       -0.01203179085436
C            0.85874985462405        0.18826277490790        0.01097790372538
C            0.07790621277497        1.38409770884588       -0.00380123220745
O            0.45817545724929        2.55492983085229       -0.00140391197020
N           -1.33228540013007        1.12401725378462       -0.03185698570489
C           -2.27359179457037        2.23044356573096       -0.05082828576575
C           -1.85463319513233       -0.12918562516924       -0.04979698744322
O           -3.05228584271269       -0.33126429862171       -0.07554391027348
N           -0.97763781992598       -1.23565944110014       -0.03880943915138
C           -1.53784932583577       -2.56557001765115       -0.05926244110175
H            3.70491597312221        1.20269410392598        1.06123574140200
H            3.97125168755468        1.02617276052226       -0.68611490730657
H            2.71297099569865        2.12607977945989       -0.07797147291271
H            3.52851604870909       -1.60800027409731        0.04929181185033
H           -1.71109160893487        3.16177561587466       -0.02621325291640
H           -2.88622633496850        2.18588765106157       -0.95291844670062
H           -2.93868476784390        2.16970284704721        0.81218976156515
H           -1.20231492021325       -3.10607673703916        0.82693376995452
H           -1.18194267082174       -3.08804685587815       -0.94841890849486
H           -2.62168644225155       -2.48948969987183       -0.07148846009116
H            2.31257917401758       -3.57764868079603       -0.01287960744004
25
 energy: 32.571606943531 xtb: 6.6.1 (8d0f1dd)
C            3.20909556378972        1.15967631267519        0.08522782166393
N            2.23222755592165        0.10045676026805        0.03300100918352
C            2.48427516326331       -1.24005450383318        0.03799590516664
N            1.44532894750430       -2.10763602074489        0.00882879382358
C            0.38078949997303       -1.12634291075315       -0.00998271593158
C            0.84885025869470        0.20200867436258        0.01099693006818
C            0.07086559996188        1.40136498652305       -0.00482676853784
O            0.44719791487722        2.56337170724120       -0.00102014781798
N           -1.33364553222951        1.13904371347978       -0.03213189335393
C           -2.27658043241800        2.24052930833724       -0.05100213243979
C           -1.85931106687210       -0.12069856944125       -0.04973102170348
O           -3.05629160249431       -0.31879747542684       -0.07579071690577
N           -0.98656874595065       -1.21866682405960       -0.03740526997870
C           -1.54025345909191       -2.55571212979621       -0.05878359620126
H            3.70175956504342        1.19468372544152        1.06023811093164
H            3.96728074578709        1.01661898409320       -0.68589885333626
H            2.71917799517115        2.12476247520473       -0.07842247460879
H            3.48642353648218       -1.60998192776382        0.04926753640629
H           -1.71666918388186        3.17280243319555       -0.02654794491429
H           -2.88862607451755        2.19184526021964       -0.95301684352433
H           -2.94102959471737        2.17581689042161        0.81196446729984
H           -1.19865927781881       -3.09505843753636        0.82504937778104
H           -1.17820187474054       -3.07670526562659       -0.94566155828047
H           -2.62445221333338       -2.48854495844243       -0.07133382636458
H            2.51923137953256       -3.73575360586697       -0.01398029227834
25
 energy: 23.201079309263 xtb: 6.6.1 (8d0f1dd)
C            3.21074963995594        1.15621027513721        0.08477986314841
N            2.22822493035204        0.09227330479429        0.03770619362249
C            2.43046590158449       -1.23559957363986        0.03223312875334
N            1.37502891208396       -2.02492863249851        0.00454217478854
C            0.35260787444699       -1.05907686009002       -0.00687626425075
C            0.85676871741439        0.23886575432566        0.01205125542236
C            0.06083495535605        1.43572953941612       -0.00577475725283
O            0.44263721074128        2.58325319488793       -0.00066053974662
N           -1.31352932010506        1.13870472519447       -0.03215497447967
C           -2.26942666984811        2.23481690847389       -0.05090257169463
C           -1.85970841164682       -0.13157049701188       -0.04944321805236
O           -3.05811519956905       -0.30478760765146       -0.07536332404329
N           -0.99188514993482       -1.21321424088514       -0.03594403315925
C           -1.53327140427863       -2.55861650180793       -0.05872960650120
H            3.70048460991842        1.19127453643298        1.05979951181257
H            3.96900081948642        1.01077448015857       -0.68419528520363
H            2.71977181084548        2.11938651837164       -0.08117904252331
H            3.43799841814135       -1.62871782661045        0.04944558625985
H           -1.71699622062319        3.17149283312771       -0.02648576379773
H           -2.88263277395477        2.18553786582400       -0.95189717919707
H           -2.93495331946289        2.16917838839640        0.81094608428622
H           -1.19230033630537       -3.09565677124358        0.82487179786506
H           -1.17107579208459       -3.07648883991600       -0.94558222406521
H           -2.61789924865072       -2.49050936698465       -0.07164011272365
H            2.66943471407341       -3.91930300402932       -0.01251280312039
25
 energy: 20.531610025036 xtb: 6.6.1 (8d0f1dd)
C            3.21363096448715        1.16221345895567        0.08388937327012
N            2.23336330744514        0.09361874232870        0.04012942977602
C            2.40596637614899       -1.23291008193861        0.03047293968262
N            1.30343147912348       -1.95179280718683        0.00241732743900
C            0.33207392013416       -1.00011999778723       -0.00652168392059
C            0.86822515054006        0.27452070237696        0.01359346077120
C            0.04846342987017        1.46477997290088       -0.00461095364995
O            0.43929574759888        2.60867678091115       -0.00023095938966
N           -1.30186227214304        1.14033375543238       -0.03177368763968
C           -2.26844966372002        2.23335770450199       -0.05080635085944
C           -1.86467809803408       -0.13761325176134       -0.04951372553844
O           -3.06495859322403       -0.28467609065450       -0.07514876640089
N           -1.00138745500876       -1.20815060713339       -0.03694878199724
C           -1.52752693269679       -2.55878836912385       -0.05910051962067
H            3.70086593441669        1.19336118973096        1.05992782063050
H            3.97197961859375        1.01094826463149       -0.68339964244443
H            2.71913164282254        2.12122017167299       -0.08374900051122
H            3.41218044402645       -1.64056431602658        0.04838813530436
H           -1.71994807539943        3.17277230407452       -0.02620430970138
H           -2.88017626763632        2.18030797855766       -0.95216104876205
H           -2.93247074696173        2.16352603506830        0.81141073377537
H           -1.18545754140905       -3.09412800502849        0.82458737293586
H           -1.16409720966481       -3.07473276900327       -0.94588848743433
H           -2.61254697378534       -2.49171755797151       -0.07196402416636
H            2.78716648241218       -4.15541460535600       -0.00976075540139
25
 energy: 20.797730667415 xtb: 6.6.1 (8d0f1dd)
C            3.21547347137253        1.16913071663299        0.08414562027336
N            2.23491755717107        0.10367917767757        0.04047108106127
C            2.40335091428607       -1.23055162037554        0.03050611201819
N            1.26586515360325       -1.91667952595354        0.00123673963036
C            0.32480631237016       -0.96580275856126       -0.00679068223574
C            0.87364124444844        0.30309748196056        0.01485034735813
C            0.04029859056744        1.48494050215178       -0.00435369520989
O            0.43419519318493        2.63305652836687       -0.00089617881285
N           -1.30187417827946        1.14694457602258       -0.03170945468178
C           -2.27278844526523        2.23655141055173       -0.05085701440911
C           -1.87112064712805       -0.13403935759264       -0.04920080981433
O           -3.07208926064148       -0.26987327975801       -0.07454107081634
N           -1.00882643723780       -1.19978205322512       -0.03758507526532
C           -1.52045310551909       -2.55417926876618       -0.05901799002071
H            3.70239372853394        1.19760638619474        1.06077538097478
H            3.97452609005836        1.01330498195297       -0.68215118607200
H            2.72038670549347        2.12624089728259       -0.08462295501394
H            3.40026072706586       -1.64505277481272        0.04661407055157
H           -1.72377303266074        3.17535719234321       -0.02639095557692
H           -2.88158544894007        2.17767679947125       -0.95300785356799
H           -2.93378773406916        2.16102803733417        0.81237641054394
H           -1.17770702427297       -3.09065804998803        0.82443704972450
H           -1.15604898222885       -3.07131104182248       -0.94540279645186
H           -2.60607546782976       -2.49335292887930       -0.07210109089231
H            2.84822874385333       -4.36830342603614       -0.00975010714773
25
 energy: 20.787370901764 xtb: 6.6.1 (8d0f1dd)
C            3.21574498501636        1.17511940359204        0.08436070752784
N            2.23206971087994        0.11685998797940        0.03986208506172
C            2.41206616948310       -1.22145625881249        0.03090010309205
N            1.26577993165384       -1.90294701968380        0.00141773609632
C            0.32631953670633       -0.95388023245137       -0.00689894840592
C            0.87383497695726        0.31805083133364        0.01586070700823
C            0.03785023050261        1.49252435994190       -0.00412421182181
O            0.42992456835084        2.64503474571725       -0.00138252875164
N           -1.30489269448476        1.15025405275492       -0.03170447056558
C           -2.27497163277496        2.23891599059125       -0.05085507077874
C           -1.87402907102690       -0.13010865467242       -0.04914173498225
O           -3.07497574586694       -0.26658591051076       -0.07435264988500
N           -1.01013420356774       -1.19580577330356       -0.03767252517900
C           -1.51642940468344       -2.55029768178115       -0.05896939997121
H            3.70362979465331        1.20120845398255        1.06107742423855
H            3.97536533269021        1.01569970160108       -0.68150850970955
H            2.72275442075628        2.13268442173923       -0.08495244514055
H            3.40051838858690       -1.63833878204785        0.04612040798736
H           -1.72431318648464        3.17639641010818       -0.02629543269507
H           -2.88239317909479        2.17846500392497       -0.95326869853032
H           -2.93471092973279        2.16169006782873        0.81261220471885
H           -1.17503943746965       -3.08859004287743        0.82458289469343
H           -1.15304355402252       -3.06922968888010       -0.94543156664086
H           -2.60273429908841       -2.49244477177934       -0.07228940431788
H            2.84402395999678       -4.50419001212285       -0.01091277690169
25
 energy: 20.372868447214 xtb: 6.6.1 (8d0f1dd)
C            3.21761945546888        1.18320744604382        0.08488101548699
N            2.22848226969993        0.13592417518684        0.03914380872364
C            2.42837704246950       -1.20280335012037        0.03147164036064
N            1.28863124290594       -1.89146771952183        0.00219656541093
C            0.33270212636654       -0.95262316756567       -0.00685849009288
C            0.87189093137817        0.32657590757503        0.01653085177986
C            0.03885322122528        1.49438687255103       -0.00433660657475
O            0.42624301029672        2.65114315259180       -0.00190567329662
N           -1.30839833042152        1.15145619434710       -0.03182325764090
C           -2.27636136203940        2.23973029963302       -0.05089741482774
C           -1.87318177158608       -0.12607471709806       -0.04904616655022
O           -3.07399920533148       -0.26962568182119       -0.07421159410786
N           -1.00650761791837       -1.19518959143903       -0.03736228196330
C           -1.51330827842350       -2.54774748655501       -0.05883027009269
H            3.70622473073711        1.20532915111040        1.06176324877253
H            3.97688183554381        1.01864711776413       -0.68107572178423
H            2.72849910292063        2.14226961149995       -0.08477407603098
H            3.40811711072158       -1.62609916725559        0.04604799102561
H           -1.72499779072107        3.17665826989592       -0.02640989203101
H           -2.88354454582068        2.17931086502058       -0.95329846244017
H           -2.93579013030372        2.16255155322884        0.81262390492227
H           -1.17391380704287       -3.08815448290754        0.82480280536965
H           -1.15184942909851       -3.06873480303943       -0.94549660023069
H           -2.60044327619828       -2.49112678951758       -0.07222823935911
H            2.78198813310760       -4.61851505743513       -0.01387318868169
25
 energy: 19.974706374376 xtb: 6.6.1 (8d0f1dd)
C            3.22015886892239        1.19141075633750        0.08504809998276
N            2.22829234299571        0.15138328423023        0.03865973385405
C            2.44334209457789       -1.18350764672794        0.03218801769119
N            1.32132116655893       -1.88502486873110        0.00355339217169
C            0.34074525326035       -0.96153449254253       -0.00669239844115
C            0.86965354609180        0.32460153386758        0.01647373751278
C            0.04222429737326        1.49110807679295       -0.00425267072204
O            0.42467183223527        2.64947220269507       -0.00176313534479
N           -1.31039610232946        1.15058508133789       -0.03179151427381
C           -2.27654284285174        2.23896250597638       -0.05088994329694
C           -1.86847122197590       -0.12398467176864       -0.04907013611580
O           -3.06919897151717       -0.27695965413017       -0.07441977958205
N           -0.99928518833417       -1.19747626255986       -0.03698382498372
C           -1.51198437838551       -2.54771306260687       -0.05884926061882
H            3.70809319266064        1.20995057056302        1.06220889525512
H            3.97773676377206        1.02274989901164       -0.68156918639224
H            2.73312787665776        2.15118944597110       -0.08462124020834
H            3.41885886422421       -1.61655425667972        0.04658909426888
H           -1.72490349567586        3.17595008074601       -0.02630079627593
H           -2.88422045463713        2.17999467044272       -0.95337368561240
H           -2.93661755790098        2.16314053371507        0.81257777882152
H           -1.17415754334857       -3.08913386319772        0.82489702187210
H           -1.15207327675611       -3.06960899112165       -0.94575788410776
H           -2.59933796918748       -2.48956175088060       -0.07226290054496
H            2.69117757150602       -4.67041051856832       -0.01656351876204
25
 energy: 19.845071062743 xtb: 6.6.1 (8d0f1dd)
C            3.22174046841968        1.19489320309235        0.08523967115978
N            2.23109044163145        0.15458474886793        0.03866418061146
C            2.44727595217315       -1.17640155877328        0.03241193911916
N            1.33680977880224       -1.88498762538386        0.00397419352850
C            0.34439102859423       -0.96914789856040       -0.00672821000986
C            0.86898873006207        0.31871394009808        0.01574576409455
C            0.04427976932794        1.48812624588839       -0.00445926049106
O            0.42520472176936        2.64544804373231       -0.00175467258120
N           -1.31036909218704        1.14964942286772       -0.03181630297778
C           -2.27638763244655        2.23801932784542       -0.05091348988629
C           -1.86509143802103       -0.12429463694861       -0.04899788161656
O           -3.06579480343440       -0.28120236360687       -0.07436563660553
N           -0.99507679132437       -1.19900656655837       -0.03684607042827
C           -1.51233119636978       -2.54893199995219       -0.05878945946288
H            3.70873127106051        1.21174150492397        1.06256102933434
H            3.97814643156183        1.02484425562549       -0.68167765375984
H            2.73442266798584        2.15438411575472       -0.08424451995290
H            3.42379555624874       -1.61401818677368        0.04686762885872
H           -1.72496258077139        3.17537285916770       -0.02643142630668
H           -2.88454496914861        2.17965464009703       -0.95337787020175
H           -2.93679976086124        2.16294050747390        0.81263471573923
H           -1.17455756481821       -3.08999508133730        0.82495252143067
H           -1.15269332404239       -3.07047789368925       -0.94575597457260
H           -2.59935890653486       -2.48918056763823       -0.07206263657930
H            2.64530591025905       -4.66169983404094       -0.01779668229660
25
 energy: 19.815081780344 xtb: 6.6.1 (8d0f1dd)
C            3.22191743807301        1.19546625027484        0.08504492671839
N            2.23284961377900        0.15338383763424        0.03877374691323
C            2.44658252044798       -1.17596874175734        0.03260517759575
N            1.33904686253350       -1.88624873608522        0.00424117680284
C            0.34489245825530       -0.97143585741747       -0.00669130420918
C            0.86887472747533        0.31598956705073        0.01549691196325
C            0.04463406056908        1.48728018960593       -0.00424025795619
O            0.42586218845995        2.64368348719214       -0.00139977968760
N           -1.30997206771936        1.14940394052796       -0.03172845100845
C           -2.27613929633829        2.23782707090160       -0.05087365353378
C           -1.86433028348864       -0.12498318750586       -0.04904414792369
O           -3.06504681616904       -0.28182431060866       -0.07450972720630
N           -0.99434668318839       -1.19911735111965       -0.03689407581454
C           -1.51279458335862       -2.54960080879905       -0.05888709948636
H            3.70859979598898        1.21212659465928        1.06235983522315
H            3.97798648297956        1.02528416024546       -0.68197131012783
H            2.73359487617070        2.15423746790550       -0.08446377070536
H            3.42461359832103       -1.61361444042777        0.04707100743916
H           -1.72469402044629        3.17522528019850       -0.02628607451718
H           -2.88424927830277        2.17961116358135       -0.95341132598877
H           -2.93666934722357        2.16282315927936        0.81262424299535
H           -1.17477158808840       -3.09018651752568        0.82486370790798
H           -1.15282108493320       -3.07063459805901       -0.94583927827655
H           -2.59956522733465       -2.48930856133945       -0.07220149736500
H            2.63816032147400       -4.65039045623968       -0.01760508360505
25
 energy: 19.809855638910 xtb: 6.6.1 (8d0f1dd)
C            3.22203096730892        1.19544398630143        0.08518914383894
N            2.23345008507223        0.15274536714557        0.03879776500116
C            2.44597984309406       -1.17621939216808        0.03252199167512
N            1.33873896037441       -1.88665296581449        0.00407855135614
C            0.34484509015405       -0.97152968866565       -0.00677262485805
C            0.86878671724653        0.31559425226517        0.01527938376973
C            0.04451055188542        1.48737070475590       -0.00443040901390
O            0.42603031255268        2.64351096137754       -0.00157451446260
N           -1.30984698936538        1.14948557416028       -0.03179188383357
C           -2.27622376544250        2.23780304360664       -0.05090146562053
C           -1.86434198942583       -0.12529568184538       -0.04899258538284
O           -3.06506871917412       -0.28161624554647       -0.07436952102751
N           -0.99444086379191       -1.19883687150805       -0.03691012390998
C           -1.51289149375769       -2.54973409620901       -0.05880687702766
H            3.70865201594945        1.21193052212002        1.06252194113498
H            3.97817864937634        1.02528035722386       -0.68174647744565
H            2.73353505204455        2.15405834200758       -0.08426011759839
H            3.42453128772655       -1.61350447318862        0.04698015452790
H           -1.72488240679370        3.17525762336298       -0.02641337742162
H           -2.88439029008532        2.17943963157692       -0.95337438691920
H           -2.93665342796792        2.16274504251071        0.81265075783705
H           -1.17463487437025       -3.09008093776105        0.82494060082693
H           -1.15280987839005       -3.07058082562901       -0.94575561771026
H           -2.59958334169380       -2.48940237298811       -0.07204857619081
H            2.63871317540949       -4.64818325491867       -0.01777783539807
