25
 energy: -42.544317282964 xtb: 6.6.1 (8d0f1dd)
C            3.21021827675253        1.17840059722320        0.09367837127720
N            2.26224244711217        0.08893822023739        0.04866247936471
C            2.52337962648951       -1.23098287980104        0.06410683385995
N            1.43675423618124       -1.98745189981752        0.03412752627348
C            0.39664795907944       -1.09931312416320       -0.02128991616098
C            0.88967321024717        0.20193022677426        0.00819762437659
C            0.07530881053973        1.39095062481939       -0.00619376082877
O            0.46904795124139        2.54375147199746       -0.00106606467169
N           -1.28398712320721        1.08350735129861       -0.03554617304444
C           -2.24074805079000        2.18252446388819       -0.05616161786157
C           -1.82968318455503       -0.18587931075409       -0.04859959803450
O           -3.03017439440659       -0.34723270739327       -0.06160437913392
N           -0.95549030146288       -1.27367147695994       -0.04727693558082
C           -1.50699465454561       -2.61092799272281       -0.05114010709202
H            3.69988441372284        1.22480766984973        1.06881287119735
H            3.97593932653445        1.05003543925025       -0.67315472995642
H            2.68549416909433        2.11978365651654       -0.07294808471207
H            3.52621599657601       -1.61244544277590        0.08289159571518
H           -1.68384218218944        3.11772307124018       -0.03555469430235
H           -2.84810020950045        2.12704035155056       -0.95889272843640
H           -2.90025337710922        2.11536735496710        0.80857272759692
H           -1.17842131564869       -3.14988420090737        0.83754010070114
H           -1.17270082823472       -3.13917292853716       -0.94249043577602
H           -2.58917475113072       -2.51960091753138       -0.05733267587191
H            2.10115756885520       -3.55818485161637       -0.15439191067278
