25
 energy: 0.000000000000 xtb: 6.6.1 (8d0f1dd)
C            3.23720163006194        1.16630919979326        0.08434469647475
N            2.29877817382611        0.07527477071623        0.03981603040599
C            2.58028210190900       -1.21425402444508        0.03006176031096
N            1.43813958087363       -1.93419271955128        0.00098261760884
C            0.39035688448383       -1.05887472636071       -0.00790371836672
C            0.93510056364412        0.21347819449412        0.01709077491437
C            0.09450143893243        1.40504303904423       -0.00410947031874
O            0.49712751527797        2.54126714362870       -0.00342325688240
N           -1.25076640035757        1.06271879480407       -0.03085478223738
C           -2.21907211982101        2.15522099834493       -0.05001256985998
C           -1.81739487048744       -0.20012725993278       -0.04692818574614
O           -2.99983886758376       -0.37846417018721       -0.07008878229737
N           -0.92618586207120       -1.30210215599479       -0.03682761578324
C           -1.46982264913417       -2.64643102187190       -0.06029820460571
H            3.71247264356769        1.21471455160235        1.06488849150277
H            4.00791497605742        1.03430808813993       -0.67357694370751
H            2.69910007168542        2.09770118228144       -0.09130154882931
H            3.56654120610678       -1.63682992603973        0.04233140067262
H           -1.67107961066214        3.09322851271934       -0.02552706933167
H           -2.82428953597071        2.09428624779827       -0.95318082946668
H           -2.87644029173232        2.07745725625962        0.81450067533302
H           -1.17061996399332       -3.19584890659852        0.83242232437030
H           -1.14560257411436       -3.17511610292205       -0.95688275822323
H           -2.55549792440841       -2.55659984320617       -0.07459039797972
H            1.38130855184625       -2.94313852034425       -0.01389874181052
25
 energy: -2.323430895062 xtb: 6.6.1 (8d0f1dd)
C            3.23150064212213        1.17886608835601        0.08845394244915
N            2.29643435161956        0.09213361242540        0.04134006653182
C            2.59833828247333       -1.23461166960822        0.03357681973829
N            1.45460234380236       -1.98572230847127       -0.00491681347552
C            0.40354497944570       -1.08577640175525       -0.00789860614510
C            0.92097007401411        0.20907342754591        0.01717381642234
C            0.09593936191568        1.39544531100474       -0.00438363591979
O            0.49471968633385        2.56152868781441       -0.00293791836733
N           -1.26691589027488        1.06139151939160       -0.03179367828545
C           -2.22833395439290        2.16229853598556       -0.05272300301850
C           -1.82410580630428       -0.19209707157236       -0.04661936781755
O           -3.02163580579814       -0.37033870946010       -0.06927431671130
N           -0.93488015735062       -1.30103523872502       -0.03626141491616
C           -1.48449439962916       -2.63265995351944       -0.05610107510980
H            3.71422412718469        1.22421264422343        1.06848647919249
H            3.99937014357603        1.04221091631301       -0.67475693286690
H            2.69475111059273        2.10999430714437       -0.08619760188613
H            3.57865188214446       -1.64355521327309        0.04850370919132
H           -1.67325808755333        3.09817953731007       -0.02948173661038
H           -2.83670093160109        2.11134757313585       -0.95578605154628
H           -2.88960273726614        2.09716932152756        0.81123290782428
H           -1.17428344323338       -3.17718171160759        0.83677590554782
H           -1.15432821943397       -3.15938051462630       -0.95240927398441
H           -2.56931794445788       -2.53453004722430       -0.06722211001291
H            1.48702506000737       -3.03793404016296       -0.03974621407672
25
 energy: 4.751208921928 xtb: 6.6.1 (8d0f1dd)
C            3.22305760696921        1.18599161582455        0.09292590614158
N            2.28907838894223        0.10330458073124        0.04248818030097
C            2.60954631007586       -1.24786971466029        0.03789650661037
N            1.47140291451486       -2.03688722285807       -0.01155703948067
C            0.41517196951978       -1.12057107209177       -0.01133903744147
C            0.90236902119314        0.19414064401270        0.01712912186653
C            0.09704190779129        1.37331710251551       -0.00347208936657
O            0.48753511235617        2.55461468052867       -0.00119557151489
N           -1.28785013188571        1.06506147853098       -0.03327282306438
C           -2.23834662676115        2.17629821616179       -0.05642304697079
C           -1.82751586326516       -0.17902884211838       -0.04675773839084
O           -3.03114405715499       -0.36200099000369       -0.06781739782566
N           -0.94487210144258       -1.29405438666915       -0.03744716213438
C           -1.50495869367169       -2.61400907695944       -0.05029411877415
H            3.71460564447397        1.23231589419468        1.07076435291755
H            3.98842288063174        1.05289034164924       -0.67586403631598
H            2.68838995795386        2.11936887593812       -0.07724733707082
H            3.58950478730366       -1.63861784653216        0.05744629020882
H           -1.67438534024469        3.10840079716577       -0.03469341198001
H           -2.85001970696011        2.13394116140227       -0.95898522915077
H           -2.90387145944006        2.12341065891416        0.80644027899194
H           -1.18445499684624       -3.15574439711971        0.84148628677346
H           -1.17379881871014       -3.14325396675168       -0.94531776559925
H           -2.58881323223903       -2.50955226808717       -0.05603845843872
H            1.64611919483197       -3.13243766154615       -0.07182076414460
25
 energy: 9.013995510259 xtb: 6.6.1 (8d0f1dd)
C            3.21831491173922        1.18668956269462        0.09515912244211
N            2.28743801417689        0.10159848156197        0.04151269652585
C            2.61130416643195       -1.25119709598402        0.03764984818508
N            1.47936725107751       -2.05335927858906       -0.01604914792805
C            0.42004173115251       -1.13594414219482       -0.01857666634796
C            0.89816552685377        0.18318583576472        0.01479421343846
C            0.09802143975689        1.36337827618754       -0.00302905151470
O            0.48589998022303        2.54333276479876        0.00131009627467
N           -1.29567055336232        1.07046188448422       -0.03457552828298
C           -2.24225948667643        2.18415958883006       -0.05807698063264
C           -1.82786161165267       -0.17430189318207       -0.04761698378270
O           -3.03032084592589       -0.36380616475229       -0.06658829452275
N           -0.94588061870498       -1.28957898416504       -0.04083130634867
C           -1.51539599106686       -2.60634490901685       -0.04725458106456
H            3.71188265138622        1.23348426504249        1.07191193682774
H            3.98208398049218        1.06129616292093       -0.67630193919311
H            2.68213449642190        2.12131263076934       -0.06985739998079
H            3.59588665080580       -1.63363419907120        0.06308423377515
H           -1.67582898238982        3.11449299193846       -0.03698234168935
H           -2.85517222576412        2.14391241238714       -0.96011859447925
H           -2.90904535537469        2.13493346612703        0.80422933341032
H           -1.19220926287578       -3.14667463581593        0.84425894926496
H           -1.19008652461664       -3.13913832060481       -0.94213616539081
H           -2.59894946558695       -2.49774318046882       -0.04808698886514
H            1.72035479141547       -3.16148691749033       -0.08079456397362
25
 energy: 9.719508827545 xtb: 6.6.1 (8d0f1dd)
C            3.21710027208523        1.18561632726388        0.09578974869425
N            2.28824916390312        0.09811016280449        0.04082910663380
C            2.60925978043326       -1.25137247563570        0.03677855557078
N            1.47988789918567       -2.05451568576297       -0.01752159302808
C            0.42054177071695       -1.13883997782445       -0.02280196764297
C            0.89912029393768        0.17936540121904        0.01295216601303
C            0.09884069285135        1.36179632346024       -0.00321332885940
O            0.48632175800516        2.53871002684649        0.00282513236137
N           -1.29661381782439        1.07335963718342       -0.03549225481656
C           -2.24279529789712        2.18609372714879       -0.05845315824431
C           -1.82810648482052       -0.17328746154271       -0.04820562142680
O           -3.02891125842071       -0.36585105768187       -0.06599430006938
N           -0.94501723651715       -1.28728697613153       -0.04298295832283
C           -1.51763379626565       -2.60478370457708       -0.04629912580215
H            3.71049709233310        1.23214153359716        1.07222289549178
H            3.97999259737974        1.06462574457139       -0.67671524822327
H            2.67890647534813        2.12010580956704       -0.06666491358252
H            3.59607796716847       -1.63158640748528        0.06591122881923
H           -1.67683609785011        3.11633394579513       -0.03748025164641
H           -2.85598624104882        2.14535655794563       -0.96027478457289
H           -2.90927374618049        2.13656079766460        0.80403232895885
H           -1.19371464048864       -3.14417704259218        0.84522061070466
H           -1.19567403957035       -3.13904318353581       -0.94125289299581
H           -2.60105076636696       -2.49546338758068       -0.04499490368123
H            1.73903232783925       -3.16294003254503       -0.08118057418585
25
 energy: 9.571827154416 xtb: 6.6.1 (8d0f1dd)
C            3.21687549572181        1.18475581632520        0.09588679729139
N            2.28919046993241        0.09575329122142        0.04087080035294
C            2.60706813860227       -1.25126916298607        0.03638488021222
N            1.47834423448871       -2.05330111481577       -0.01777399430273
C            0.41981490352822       -1.13881354973211       -0.02446611736813
C            0.90021715070915        0.17831838941592        0.01206931628036
C            0.09944352444957        1.36190812697916       -0.00339458579428
O            0.48681561433455        2.53743860783632        0.00368220514629
N           -1.29608357374323        1.07418385789399       -0.03614472475722
C           -2.24236509460375        2.18605502119265       -0.05859297071690
C           -1.82860144762122       -0.17313335307910       -0.04839674695430
O           -3.02852192487829       -0.36639645245313       -0.06560106886630
N           -0.94471317356126       -1.28618597429007       -0.04385688050119
C           -1.51752800920223       -2.60478839130932       -0.04601666366503
H            3.71033530342519        1.23098726382686        1.07206078824722
H            3.97922716178636        1.06558760187503       -0.67715337895696
H            2.67730897543790        2.11873630323794       -0.06554625425707
H            3.59461373509122       -1.63097731252510        0.06766380243599
H           -1.67722254814908        3.11668454448963       -0.03765443691919
H           -2.85583036999994        2.14497954839783       -0.96024828714697
H           -2.90855759334205        2.13609598551550        0.80414729640051
H           -1.19285361801081       -3.14332269098510        0.84553462816622
H           -1.19632114283098       -3.13910374391722       -0.94099631113457
H           -2.60087090951641       -2.49592726034592       -0.04403771500735
H            1.74242936588806       -3.15923674959647       -0.08138648203767
25
 energy: 9.389536741708 xtb: 6.6.1 (8d0f1dd)
C            3.21689460617942        1.18455323077245        0.09578570520658
N            2.28959998936000        0.09511064610658        0.04114337567068
C            2.60622158561394       -1.25144254569185        0.03624838670557
N            1.47726246510869       -2.05293032085448       -0.01755638821284
C            0.41933742506163       -1.13849601008527       -0.02466719303324
C            0.90050071509518        0.17847481366771        0.01186170115939
C            0.09968894267283        1.36206201697515       -0.00340903602916
O            0.48692318479504        2.53768338482068        0.00397719642602
N           -1.29572062114139        1.07397203800290       -0.03644400722196
C           -2.24201042548176        2.18571975710166       -0.05862710892136
C           -1.82891341201696       -0.17315452210121       -0.04838994937419
O           -3.02871951408713       -0.36618736091733       -0.06536861362140
N           -0.94486831052759       -1.28595794524050       -0.04395817789846
C           -1.51714937789010       -2.60501099609587       -0.04604946041096
H            3.71062882140489        1.23071019540358        1.07179694305532
H            3.97908216856195        1.06559567781809       -0.67744549085415
H            2.67686172663413        2.11821203179695       -0.06546747690776
H            3.59377191921789       -1.63118731556560        0.06849917195537
H           -1.67716646116889        3.11657814589555       -0.03767900755044
H           -2.85566948314447        2.14471419967598       -0.96019455599153
H           -2.90814525298537        2.13571250613455        0.80422389082706
H           -1.19207580763369       -3.14320688963295        0.84549891238185
H           -1.19560073907221       -3.13905731062822       -0.94101769896699
H           -2.60048464491573       -2.49656338177825       -0.04407320329739
H            1.74196516829595       -3.15687544340824       -0.08165401894872
25
 energy: 9.157249342476 xtb: 6.6.1 (8d0f1dd)
C            3.21691752216986        1.18447350749133        0.09558576285382
N            2.29001218169077        0.09467945522595        0.04166588114916
C            2.60553604522305       -1.25194415587571        0.03580001614108
N            1.47600441057629       -2.05309549081954       -0.01712695290843
C            0.41891046347018       -1.13817200773212       -0.02468564058429
C            0.90059404501399        0.17896866293447        0.01166787992748
C            0.09994919453748        1.36212728970034       -0.00332951625042
O            0.48685969891928        2.53826963845988        0.00424720628806
N           -1.29542735438282        1.07346572952442       -0.03682712064294
C           -2.24163281447615        2.18534179293106       -0.05866206750976
C           -1.82923960240020       -0.17318957556921       -0.04828262585749
O           -3.02910280549664       -0.36582830538815       -0.06498166497697
N           -0.94517130442255       -1.28588034454201       -0.04391266468664
C           -1.51672889050028       -2.60526800416614       -0.04617813912930
H            3.71116448843737        1.23068606752201        1.07136227548542
H            3.97896208678080        1.06552399674616       -0.67787637989747
H            2.67642801416466        2.11774183751223       -0.06553426869788
H            3.59294780191060       -1.63180870497575        0.06984461637710
H           -1.67691680079357        3.11636047964600       -0.03768184165299
H           -2.85552529488375        2.14456343243848       -0.96012088026952
H           -2.90772342449369        2.13537087940115        0.80430141955273
H           -1.19131937275386       -3.14322774308315        0.84534854571856
H           -1.19457510316339       -3.13897036404226       -0.94112466543324
H           -2.60007936938752       -2.49725431898603       -0.04433651859797
H            1.74137085219634       -3.15390515218140       -0.08212876025084
