25
 energy: 0.000000000000 xtb: 6.6.1 (8d0f1dd)
C            3.23720163006194        1.16630919979326        0.08434469647475
N            2.29877817382611        0.07527477071623        0.03981603040599
C            2.58028210190900       -1.21425402444508        0.03006176031096
N            1.43813958087363       -1.93419271955128        0.00098261760884
C            0.39035688448383       -1.05887472636071       -0.00790371836672
C            0.93510056364412        0.21347819449412        0.01709077491437
C            0.09450143893243        1.40504303904423       -0.00410947031874
O            0.49712751527797        2.54126714362870       -0.00342325688240
N           -1.25076640035757        1.06271879480407       -0.03085478223738
C           -2.21907211982101        2.15522099834493       -0.05001256985998
C           -1.81739487048744       -0.20012725993278       -0.04692818574614
O           -2.99983886758376       -0.37846417018721       -0.07008878229737
N           -0.92618586207120       -1.30210215599479       -0.03682761578324
C           -1.46982264913417       -2.64643102187190       -0.06029820460571
H            3.71247264356769        1.21471455160235        1.06488849150277
H            4.00791497605742        1.03430808813993       -0.67357694370751
H            2.69910007168542        2.09770118228144       -0.09130154882931
H            3.56654120610678       -1.63682992603973        0.04233140067262
H           -1.67107961066214        3.09322851271934       -0.02552706933167
H           -2.82428953597071        2.09428624779827       -0.95318082946668
H           -2.87644029173232        2.07745725625962        0.81450067533302
H           -1.17061996399332       -3.19584890659852        0.83242232437030
H           -1.14560257411436       -3.17511610292205       -0.95688275822323
H           -2.55549792440841       -2.55659984320617       -0.07459039797972
H            1.38130855184625       -2.94313852034425       -0.01389874181052
25
 energy: -1.139567004111 xtb: 6.6.1 (8d0f1dd)
C            3.22978977479641        1.17880003488192        0.08843343387462
N            2.29390963869794        0.09198179084226        0.04173494053706
C            2.59666841736440       -1.23460914193536        0.03419812931543
N            1.45818411243843       -1.99372491460352       -0.00511755713865
C            0.40414652743440       -1.09002580481842       -0.00763285674437
C            0.91903400265930        0.20772714376323        0.01741952342618
C            0.09473756700754        1.39633919728140       -0.00428633148491
O            0.49366569822141        2.56247004966244       -0.00271903410842
N           -1.26802889378309        1.06376459451876       -0.03189024694682
C           -2.22972640716641        2.16506118795017       -0.05300469620649
C           -1.82428159486581       -0.19010821302094       -0.04655460066145
O           -3.02188668387685       -0.36766832938591       -0.06918267614825
N           -0.93532119182304       -1.30048616634134       -0.03611742518673
C           -1.48588917136317       -2.63091313304538       -0.05570326227981
H            3.71312234185430        1.22379864720772        1.06820057030166
H            3.99784025448353        1.04139796157072       -0.67455918662061
H            2.69541952856836        2.11135387600102       -0.08619483053507
H            3.57694711302336       -1.64084531984858        0.04928034029072
H           -1.67591724858155        3.10181604014208       -0.02987333299198
H           -2.83835528345199        2.11384968974283       -0.95591892314295
H           -2.89128223725812        2.09985495331872        0.81076653088502
H           -1.17441172245324       -3.17454021725193        0.83712803063658
H           -1.15493536241576       -3.15691400163026       -0.95196814847809
H           -2.57065272959308       -2.53285118367947       -0.06654464589852
H            1.50943821801892       -3.05650013915017       -0.04285984854688
25
 energy: 10.033381116921 xtb: 6.6.1 (8d0f1dd)
C            3.22005071071849        1.18537040322781        0.09262497880380
N            2.28352384075827        0.10359020026360        0.04304844235342
C            2.60486554520417       -1.24794437588343        0.03926308534783
N            1.47737747631794       -2.05528509549441       -0.01128094265110
C            0.41585713138937       -1.12929029279690       -0.01116967547369
C            0.89744187174745        0.19120206683540        0.01737110286548
C            0.09432580301490        1.37514443588037       -0.00320646547043
O            0.48555045095916        2.55663959509690       -0.00062132729165
N           -1.29108967174006        1.07129289184406       -0.03348329748069
C           -2.24220770637685        2.18275169468855       -0.05680067656791
C           -1.82860036406294       -0.17316899308300       -0.04666614326427
O           -3.03250867522505       -0.35540981077762       -0.06762143169998
N           -0.94683426925690       -1.29091023998099       -0.03731058335960
C           -1.50770893883592       -2.60929155998220       -0.04971935649668
H            3.71227766310983        1.23088512515794        1.07022533207771
H            3.98562592473037        1.05001635658475       -0.67575961574657
H            2.69056071520725        2.12184187167603       -0.07785114753598
H            3.58524185737216       -1.63303842575629        0.05928677335046
H           -1.68104081011043        3.11670200142227       -0.03519592752478
H           -2.85416507300154        2.13910968459452       -0.95918502991397
H           -2.90797501305937        2.12873632123343        0.80587362038949
H           -1.18375847939294       -3.14962143938329        0.84156907450226
H           -1.17392395660936       -3.13720759479542       -0.94438733045514
H           -2.59145449814468       -2.50718793909830       -0.05506746755492
H            1.70078313322291       -3.17589827930172       -0.07690209505578
25
 energy: 17.735132885409 xtb: 6.6.1 (8d0f1dd)
C            3.21453984068080        1.18580571350239        0.09489568715929
N            2.28111618972518        0.10153961353540        0.04198905286591
C            2.60588906267023       -1.25239199530184        0.03939656749802
N            1.48743058025323       -2.07793432572139       -0.01607274248677
C            0.42146021218427       -1.14684646712185       -0.01963452698711
C            0.89215359424511        0.17896975165633        0.01445584803245
C            0.09456977152652        1.36494468442759       -0.00269869383748
O            0.48355206128617        2.54500322222004        0.00230595705690
N           -1.30065453777247        1.07921609538187       -0.03488670668814
C           -2.24839318780806        2.19302250422619       -0.05851616839939
C           -1.82974869373136       -0.16608270110686       -0.04747150690321
O           -3.03246525661976       -0.35576846936764       -0.06602747370450
N           -0.94838953208074       -1.28403218676108       -0.04106952197898
C           -1.51936796893944       -2.59896211190450       -0.04646954381484
H            3.70855558847594        1.23207724988289        1.07148798581054
H            3.97825195245650        1.05798105495836       -0.67628253470499
H            2.68436058891341        2.12419617828307       -0.07052467900914
H            3.59195056951762       -1.62685826166950        0.06642487466095
H           -1.68600480673816        3.12593289608347       -0.03760324731214
H           -2.86204053227944        2.15144282870365       -0.96017227220929
H           -2.91581887433223        2.14264684441883        0.80340346579091
H           -1.19122071190767       -3.13719144293364        0.84444372443670
H           -1.19072128654023       -3.13003801750556       -0.94099278267655
H           -2.60286108393099       -2.49362369738631       -0.04639984618860
H            1.79607112868177       -3.22402035832789       -0.08694702026322
25
 energy: 19.750973430685 xtb: 6.6.1 (8d0f1dd)
C            3.21379815703350        1.18451771754832        0.09523266632152
N            2.28197655594310        0.09804910537835        0.04171406584454
C            2.60278555626355       -1.25296675904178        0.03918439738102
N            1.48718530079948       -2.07908704352534       -0.01659478115327
C            0.42130388926259       -1.14808457646133       -0.02365099275320
C            0.89308316341542        0.17616347265116        0.01287936787337
C            0.09481286600010        1.36444477058975       -0.00269945039081
O            0.48359515515786        2.54141561287622        0.00356351854866
N           -1.30196010068707        1.08302390510843       -0.03565591357981
C           -2.24968063694649        2.19535159331223       -0.05878461390873
C           -1.83082868686322       -0.16425232527044       -0.04781275518285
O           -3.03181945637044       -0.35714487283685       -0.06531946959421
N           -0.94799167200334       -1.28035181981612       -0.04294802185426
C           -1.52087673967009       -2.59678062080338       -0.04572634545228
H            3.70744472831100        1.23108175346783        1.07155915654576
H            3.97659799629426        1.06029570153451       -0.67684692444650
H            2.68193265493498        2.12289157842788       -0.06835239032713
H            3.59117503855968       -1.62497019870821        0.06943745375333
H           -1.68817419544609        3.12840898345127       -0.03795916307862
H           -2.86351244952572        2.15279917906726       -0.96028521842250
H           -2.91672699675012        2.14413118622824        0.80336937917241
H           -1.19170135689162       -3.13394637022511        0.84515865331612
H           -1.19436900282600       -3.12877172146730       -0.94025686704230
H           -2.60429278514538       -2.49204004598053       -0.04406173135233
H            1.81845768508629       -3.23514960333305       -0.08811012407066
25
 energy: 20.705657527013 xtb: 6.6.1 (8d0f1dd)
C            3.21396895027525        1.18359185316719        0.09502734758977
N            2.28324123556228        0.09539869908700        0.04219141554136
C            2.59934798132931       -1.25298937650186        0.03951827775611
N            1.48445782723204       -2.07656270525083       -0.01562164642575
C            0.41971829588933       -1.14627952204667       -0.02559392688648
C            0.89449044716871        0.17597428071997        0.01218358157425
C            0.09494099639201        1.36553422391405       -0.00261039949862
O            0.48370170325196        2.54074481035220        0.00413738909963
N           -1.30158460431913        1.08451823064137       -0.03612142883025
C           -2.24960486509944        2.19557391729312       -0.05880855365781
C           -1.83209619327623       -0.16367585928610       -0.04772721060956
O           -3.03192266909161       -0.35735739683792       -0.06466748370786
N           -0.94808018018661       -1.27811888281973       -0.04366471667207
C           -1.52020525301192       -2.59645091374832       -0.04569557764016
H            3.70747259422269        1.23047039902539        1.07111146379388
H            3.97623430244413        1.06074420566006       -0.67742158298110
H            2.68078738429745        2.12149006717290       -0.06809728889044
H            3.58877695720013       -1.62426089789924        0.07116348717123
H           -1.68919253968262        3.12913723539261       -0.03799942125352
H           -2.86364149284184        2.15244036784952       -0.96018354986793
H           -2.91640695329575        2.14369353102574        0.80357381748159
H           -1.19016216369879       -3.13256999008574        0.84522899762218
H           -1.19351623820653       -3.12797635689298       -0.94021563607889
H           -2.60361220203154       -2.49307519006216       -0.04381997017780
H            1.82510134741287       -3.24096612769756       -0.08885348830448
25
 energy: 21.190938660032 xtb: 6.6.1 (8d0f1dd)
C            3.21421040692174        1.18356942990617        0.09473167443217
N            2.28403210861611        0.09460657094777        0.04273814389069
C            2.59777965007124       -1.25305602827788        0.03999999353160
N            1.48244786445221       -2.07455482858953       -0.01441216011811
C            0.41865638498580       -1.14464276555401       -0.02627362885883
C            0.89519306892931        0.17691697859117        0.01191586010812
C            0.09493478570672        1.36646000024547       -0.00250734179679
O            0.48365922625746        2.54160244690344        0.00415206181558
N           -1.30101099447294        1.08441495444837       -0.03628595481702
C           -2.24923064298717        2.19518110752485       -0.05872094414897
C           -1.83276598189955       -0.16368435767256       -0.04753822067582
O           -3.03234111836491       -0.35683651648871       -0.06417596008357
N           -0.94843290436414       -1.27748350064298       -0.04365619948972
C           -1.51944670723783       -2.59668852564767       -0.04595064505799
H            3.70776971942790        1.23065692547549        1.07071902974467
H            3.97642159585257        1.06063998205073       -0.67771032934069
H            2.68047396263148        2.12103025643497       -0.06856872707071
H            3.58737977517072       -1.62432294530818        0.07168739805291
H           -1.68938169675306        3.12912144820913       -0.03787685461045
H           -2.86345026377224        2.15207718787712       -0.96002294463419
H           -2.91605154835235        2.14317417672747        0.80372493036238
H           -1.18906020872721       -3.13235761997419        0.84498915800521
H           -1.19196241845469       -3.12762957337372       -0.94043650040264
H           -2.60288174019950       -2.49400456578627       -0.04433279163684
H            1.82527234449852       -3.24516163585446       -0.08915515105370
25
 energy: 21.869595582913 xtb: 6.6.1 (8d0f1dd)
C            3.21440869977270        1.18400147217204        0.09443691834188
N            2.28469018198064        0.09453629990063        0.04342973899251
C            2.59695844464207       -1.25322577118014        0.04071392011739
N            1.48079258138211       -2.07260415539536       -0.01292337551292
C            0.41789820481598       -1.14298630289053       -0.02693530650421
C            0.89564586793165        0.17849196060050        0.01159807121972
C            0.09482624532687        1.36742796272239       -0.00236659832771
O            0.48348392190871        2.54309113627796        0.00387006765656
N           -1.30047241521592        1.08392596544168       -0.03635790837480
C           -2.24891304269728        2.19476110912725       -0.05861504086176
C           -1.83317362919793       -0.16378817896099       -0.04722664583390
O           -3.03284629490526       -0.35601054872019       -0.06361152311431
N           -0.94884385717775       -1.27731441988800       -0.04335535119311
C           -1.51880164985062       -2.59693045184201       -0.04627715656701
H            3.70810254321559        1.23132365401222        1.07038254853153
H            3.97675528161094        1.06060596412174       -0.67788277051819
H            2.68031224287715        2.12101244409156       -0.06918903585470
H            3.58647558722166       -1.62459644561328        0.07181201296002
H           -1.68941351840840        3.12900248721985       -0.03771827356020
H           -2.86326949644151        2.15182265054966       -0.95988103963345
H           -2.91582349242888        2.14273687362911        0.80383640943270
H           -1.18834456616281       -3.13244024234928        0.84467672459934
H           -1.19048953527188       -3.12736194408565       -0.94072877849635
H           -2.60227227879845       -2.49456977972315       -0.04500193442214
H            1.82452864180682       -3.25188313704596       -0.08965177692964
25
 energy: 22.472635369983 xtb: 6.6.1 (8d0f1dd)
C            3.21443387605941        1.18446776595269        0.09433378083917
N            2.28467942188328        0.09512616953518        0.04380468283085
C            2.59725762325717       -1.25325117789434        0.04137420726449
N            1.48069843460338       -2.07180946036027       -0.01201599239725
C            0.41793021220656       -1.14240670640408       -0.02739793556347
C            0.89554085317388        0.17953445014215        0.01137115203792
C            0.09464189053196        1.36786513494154       -0.00226336277618
O            0.48327903411628        2.54399126417528        0.00351096984747
N           -1.30044532969733        1.08372115459731       -0.03628678882487
C           -2.24901230584621        2.19478558378416       -0.05855768780281
C           -1.83307224981711       -0.16377978144194       -0.04704664062350
O           -3.03300582530053       -0.35552403621193       -0.06338244144170
N           -0.94899338263929       -1.27751988355963       -0.04306154383322
C           -1.51873712951896       -2.59687822202289       -0.04641878987550
H            3.70822635831938        1.23188126962875        1.07030332987282
H            3.97692956004924        1.06068297003311       -0.67787884786087
H            2.68044256737933        2.12140701666143       -0.06946640155160
H            3.58659257116844       -1.62466472718469        0.07150832741151
H           -1.68941852757960        3.12900450802961       -0.03762949674445
H           -2.86330721972596        2.15188839096097       -0.95985933095941
H           -2.91595413207518        2.14272838330486        0.80385310663872
H           -1.18848052754295       -3.13260403726124        0.84453688840490
H           -1.19024244606322       -3.12727982103932       -0.94085410571101
H           -2.60222994862385       -2.49436628060368       -0.04527574422126
H            1.82446128961804       -3.25797132559101       -0.09016743881349
25
 energy: 23.104583047705 xtb: 6.6.1 (8d0f1dd)
C            3.21437046927719        1.18477336044078        0.09434666186089
N            2.28404144426881        0.09609634491704        0.04386276522095
C            2.59813845754515       -1.25293774295100        0.04232540695492
N            1.48183723587326       -2.07172141021225       -0.01139015499706
C            0.41843679756012       -1.14268570522419       -0.02785754229044
C            0.89499927368807        0.17990529488981        0.01122957888369
C            0.09439768866603        1.36793612874437       -0.00218006832596
O            0.48309521693446        2.54421700007493        0.00315637206817
N           -1.30089487150690        1.08402327453003       -0.03606442828396
C           -2.24950069870343        2.19525039062848       -0.05852529765524
C           -1.83269516677849       -0.16355894843774       -0.04701787347696
O           -3.03288192664725       -0.35541243238220       -0.06347722552571
N           -0.94894832294820       -1.27776692253762       -0.04294493331541
C           -1.51909405992121       -2.59652225619717       -0.04641331448127
H            3.70818663864714        1.23208001641385        1.07037383238220
H            3.97689565440194        1.06069546924900       -0.67782987845434
H            2.68091610372704        2.12205568384974       -0.06945741320272
H            3.58730842836037       -1.62432917203466        0.07085371546180
H           -1.68954062304533        3.12921208772218       -0.03760609231720
H           -2.86358136863881        2.15221002967361       -0.95991036579594
H           -2.91639769709419        2.14310737100765        0.80382874356672
H           -1.18908309366444       -3.13263459142654        0.84453405659718
H           -1.19091380300010       -3.12726180534418       -0.94083805992585
H           -2.60259910388318       -2.49372273448364       -0.04518322900155
H            1.82572199481819       -3.26398012873826       -0.09078135979968
