25
 energy: 0.000000000000 xtb: 6.6.1 (8d0f1dd)
C            3.23720132972391        1.16630909158653        0.08434468864950
N            2.29877796055224        0.07527476373246        0.03981602671198
C            2.58028186251803       -1.21425391179017        0.03006175752192
N            1.43813944744728       -1.93419254010258        0.00098261751768
C            0.39035684826767       -1.05887462812143       -0.00790371763344
C            0.93510047688824        0.21347817468824        0.01709077332874
C            0.09450143016486        1.40504290868848       -0.00410946993748
O            0.49712746915594        2.54126690785742       -0.00342325656480
N           -1.25076628431515        1.06271869620815       -0.03085477937476
C           -2.21907191394203        2.15522079838987       -0.05001256521996
C           -1.81739470187490       -0.20012724136556       -0.04692818139228
O           -2.99983858926755       -0.37846413507442       -0.07008877579474
N           -0.92618577614240       -1.30210203518959       -0.03682761236648
C           -1.46982251276835       -2.64643077634382       -0.06029819901142
H            3.71247229913541        1.21471443890471        1.06488839270555
H            4.00791460421487        1.03430799217987       -0.67357688121503
H            2.69909982127087        2.09770098766290       -0.09130154035862
H            3.56654087521359       -1.63682977417947        0.04233139674524
H           -1.67107945562430        3.09322822573871       -0.02552706696334
H           -2.82428927394145        2.09428605349656       -0.95318074103337
H           -2.87644002486466        2.07745706351925        0.81450059976605
H           -1.17061985538665       -3.19584861009707        0.83242224714061
H           -1.14560246782873       -3.17511580834413       -0.95688266944647
H           -2.55549768731684       -2.55659960601237       -0.07459039105944
H            1.38130842369251       -2.94313824728853       -0.01389874052104
25
 energy: 0.063921627205 xtb: 6.6.1 (8d0f1dd)
C            3.22855936137874        1.17870006719774        0.08834015699818
N            2.29166806258021        0.09206034860021        0.04198513923101
C            2.59471640826324       -1.23446992010253        0.03468967721805
N            1.46066880713018       -2.00040834947202       -0.00504629733939
C            0.40439421623923       -1.09312504224552       -0.00736547747921
C            0.91735215723590        0.20705200381595        0.01758480607677
C            0.09367362777918        1.39746988536171       -0.00422765510928
O            0.49261913353681        2.56363736142720       -0.00256655685247
N           -1.26892545668487        1.06589088675795       -0.03196735354457
C           -2.23086219104099        2.16733268154832       -0.05318006150546
C           -1.82446862919993       -0.18829190389250       -0.04651779190241
O           -3.02210547377448       -0.36534128203935       -0.06913001173267
N           -0.93579959069232       -1.29977696620326       -0.03600177955358
C           -1.48677070161575       -2.62944169317332       -0.05545666866665
H            3.71234353883871        1.22334889951312        1.06791591573829
H            3.99682462854475        1.04062128059872       -0.67441031647085
H            2.69628452608958        2.11248951332204       -0.08627843343834
H            3.57480588056989       -1.63865113343581        0.04982591830461
H           -1.67805572854236        3.10477095528793       -0.03010987232916
H           -2.83960395791568        2.11566121540365       -0.95600694860722
H           -2.89252610215841        2.10175601151552        0.81049261461540
H           -1.17425068171813       -3.17245395683331        0.83727044468989
H           -1.15506724825608       -3.15490180604767       -0.95163086416556
H           -2.57149060330904       -2.53185998924940       -0.06614246771033
H            1.52823032169413       -3.07304027891140       -0.04503220427048
25
 energy: 15.357794703252 xtb: 6.6.1 (8d0f1dd)
C            3.21823745577738        1.18478430749215        0.09219725677238
N            2.27881684778247        0.10425502449029        0.04329030856793
C            2.59929654980171       -1.24768354299225        0.04024352686807
N            1.48058483423187       -2.07015489075286       -0.01043425734126
C            0.41561422281109       -1.13466567433281       -0.01082777047498
C            0.89349368036635        0.19034109061716        0.01746786479357
C            0.09192811516521        1.37812377885686       -0.00307557034487
O            0.48332484133115        2.55972527238138       -0.00030521696657
N           -1.29347037064059        1.07677012954613       -0.03362787836322
C           -2.24526819856535        2.18777214266753       -0.05694942627184
C           -1.82962598429903       -0.16804866394674       -0.04657761906045
O           -3.03362592427165       -0.34983265731268       -0.06752244019923
N           -0.94866716358541       -1.28757982447298       -0.03710770418908
C           -1.50891179467993       -2.60546218484539       -0.04948841183426
H            3.71080124141319        1.22953748307102        1.06969739636451
H            3.98413235243398        1.04749493152196       -0.67567662007278
H            2.69324344765955        2.12394308074555       -0.07858547882570
H            3.57964218875865       -1.62900409232078        0.06036721714761
H           -1.68632401993576        3.12313101823553       -0.03536973490775
H           -2.85716709804551        2.14240485214035       -0.95927647582846
H           -2.91087982266690        2.13198818844432        0.80570727191074
H           -1.18222895292941       -3.14497572511924        0.84126350092728
H           -1.17262558464521       -3.13235610038868       -0.94375604312294
H           -2.59260180466341       -2.50642707014989       -0.05480031235569
H            1.74449524636799       -3.21505208483190       -0.07981947099846
25
 energy: 28.060126250716 xtb: 6.6.1 (8d0f1dd)
C            3.21201205353349        1.18512390585051        0.09446939017293
N            2.27509973737133        0.10260475261546        0.04232162624049
C            2.59870181562230       -1.25349536383248        0.04120997894220
N            1.49211255387558       -2.10049447483979       -0.01485540266156
C            0.42153937348843       -1.15432362723135       -0.02001040764439
C            0.88628670080500        0.17747788814540        0.01434125954548
C            0.09120856814195        1.36813108892661       -0.00236496588575
O            0.48004904311110        2.54878329551555        0.00279551246849
N           -1.30548186054000        1.08769298342844       -0.03507281815535
C           -2.25409443236382        2.20097354010005       -0.05882415207432
C           -1.83198748168241       -0.15782454124915       -0.04718833033970
O           -3.03496389091733       -0.34798437092169       -0.06558714161137
N           -0.95150076892213       -1.27755280866840       -0.04094996567024
C           -1.52174399596410       -2.59186971621077       -0.04597379489163
H            3.70642953616720        1.23088577113281        1.07096102554575
H            3.97574027113898        1.05477765690009       -0.67636245489461
H            2.68779230576986        2.12722547620478       -0.07145739033386
H            3.58554904330560       -1.62181755612694        0.06880589871119
H           -1.69487702778367        3.13586789830962       -0.03802505092015
H           -2.86803942140295        2.15751331383089       -0.96027507392599
H           -2.92173874221776        2.14881102912503        0.80290556257315
H           -1.18890898316455       -3.12854718608509        0.84420941209518
H           -1.18903665996939       -3.12130607587620       -0.93996398898810
H           -2.60524672826498       -2.49128734726159       -0.04562062075711
H            1.86731329583470       -3.29033674303775       -0.09245419534620
25
 energy: 34.538543760105 xtb: 6.6.1 (8d0f1dd)
C            3.21111253750837        1.18368183929170        0.09426585210724
N            2.27491001581086        0.09957323238805        0.04273638841098
C            2.59272841306649       -1.25486217223515        0.04364571128766
N            1.49108726761453       -2.10517761108459       -0.01150569061357
C            0.42027854561519       -1.15518181435225       -0.02542121893857
C            0.88558884586010        0.17511390862265        0.01330328598030
C            0.09043982978588        1.36845883388504       -0.00125391056885
O            0.47856042632948        2.54591321002574        0.00346974872698
N           -1.30917476511842        1.09450681394379       -0.03554920444960
C           -2.25733882173370        2.20588612252534       -0.05917668344195
C           -1.83493532244428       -0.15319122978294       -0.04726292004104
O           -3.03597769047858       -0.34786452712770       -0.06431711343165
N           -0.95282839824304       -1.27022796784768       -0.04364361051838
C           -1.52409414425280       -2.58704574607913       -0.04529225451106
H            3.70530822832216        1.23030366456640        1.07037817030813
H            3.97356669663864        1.05636709504666       -0.67763933835239
H            2.68623195983732        2.12656741835942       -0.07005762280638
H            3.58274776211919       -1.61894953478674        0.07283938084038
H           -1.69896019358228        3.14083505392700       -0.03849615775680
H           -2.87131818108161        2.16088897865537       -0.96059573907589
H           -2.92461130798267        2.15254763422214        0.80281860891866
H           -1.18887376694482       -3.12200938154873        0.84476362198029
H           -1.19228502697170       -3.11731060788339       -0.93894609894238
H           -2.60757907900819       -2.48915536721506       -0.04326218017579
H            1.91763047430632       -3.33063905677189       -0.09876711274177
25
 energy: 40.586047699970 xtb: 6.6.1 (8d0f1dd)
C            3.20952079103910        1.18207217742412        0.09198973918513
N            2.27018209495942        0.09945505329094        0.04522352083237
C            2.57996760105459       -1.25449502734287        0.05424637703920
N            1.48686503754386       -2.11278792043065        0.00701709072622
C            0.41632363041553       -1.15500998024635       -0.03033193514730
C            0.88075557603032        0.17566019782938        0.01459348794839
C            0.08853951224430        1.37096675776333        0.00214306300540
O            0.47482813251018        2.54670557994504        0.00101362238207
N           -1.31420937475068        1.10283178088783       -0.03505590355319
C           -2.26080849339058        2.21263158619029       -0.05929541210788
C           -1.83891116146257       -0.14621207409805       -0.04722981818254
O           -3.03886256011501       -0.34372683220009       -0.06232449021738
N           -0.95736245571064       -1.26055563673897       -0.04805683432720
C           -1.52694172289911       -2.58047267958745       -0.04561291711426
H            3.70411490425793        1.22914014529004        1.06762358796321
H            3.97100436961108        1.05377261533847       -0.68025090269974
H            2.68744600717137        2.12727389223898       -0.07191314711912
H            3.57300322037329       -1.61373968337099        0.07538977311358
H           -1.70256724337588        3.14739270692668       -0.03869773670565
H           -2.87445034367625        2.16589964868061       -0.96088224217293
H           -2.92770705605563        2.15803613171147        0.80296529792662
H           -1.18741301482041       -3.11306862419302        0.84411282791184
H           -1.19299940914954       -3.11159458043021       -0.93780708934907
H           -2.61045204293423       -2.48785372500653       -0.04240161029858
H            2.00234830610201       -3.40329272112795       -0.11942443684471
25
 energy: 38.940868452854 xtb: 6.6.1 (8d0f1dd)
C            3.20680097433396        1.17792648478177        0.09016787997594
N            2.25644758717782        0.10142098975727        0.04771783153961
C            2.54474284463981       -1.25118527628393        0.06647343069472
N            1.47143123134692       -2.12300509623278        0.03661024685127
C            0.40558759477931       -1.14803374122528       -0.03469426062784
C            0.86876144401379        0.18264408490820        0.01480174848192
C            0.08473206061817        1.38001147790444        0.00469897613884
O            0.46552851487633        2.55159360280159       -0.00229798933441
N           -1.32253131049687        1.12006157867778       -0.03518195391427
C           -2.26650407335275        2.22537971854955       -0.06025592655006
C           -1.84497392439606       -0.13261910903862       -0.04636881885180
O           -3.04345928158823       -0.33410784062581       -0.06021340110670
N           -0.96756614025561       -1.23979854955897       -0.05089163503267
C           -1.53198889314438       -2.56718729236280       -0.04419638368197
H            3.70179328892417        1.22477827985010        1.06508139516137
H            3.96687331254646        1.04814326047657       -0.68230247078780
H            2.69229778233701        2.12902557848838       -0.07263815739778
H            3.54432203233107       -1.60562514958404        0.07741439485448
H           -1.70753805544140        3.15897038860750       -0.04019604439129
H           -2.87890830603333        2.17384498552790       -0.96222099962633
H           -2.93197487137306        2.16722382693942        0.80267809422835
H           -1.18544761194591       -3.09882748212690        0.84323648863807
H           -1.19334456817563       -3.10015806456619       -0.93347452112614
H           -2.61555216240845       -2.48531526513216       -0.04008594193825
H            2.19268483565926       -3.56613260178891       -0.15682807000270
25
 energy: 33.302069018046 xtb: 6.6.1 (8d0f1dd)
C            3.20422582648634        1.17181463593313        0.09100586141023
N            2.24149401702777        0.10018939696844        0.05100097467252
C            2.49940566521406       -1.24697866546223        0.06888979878395
N            1.44807044170673       -2.11643641437038        0.04613392618740
C            0.39135195101685       -1.13030950687343       -0.02370949929970
C            0.85878087463384        0.19623972954698        0.01305899560207
C            0.07876399108137        1.39612237394552       -0.00171532801417
O            0.45489358578569        2.55929274242005       -0.00167037775395
N           -1.32450119150499        1.13573969103815       -0.03731345567152
C           -2.26968231164962        2.23572044568950       -0.06149358527716
C           -1.84907204840966       -0.12369779893284       -0.04563516221816
O           -3.04661539265820       -0.32257353155314       -0.06027637857094
N           -0.97629013087137       -1.22186251465228       -0.04391255170936
C           -1.53459474902423       -2.55666597348214       -0.04114883977277
H            3.69977204287119        1.21905455062184        1.06452938557948
H            3.96249120544831        1.03977082812835       -0.68189543241073
H            2.69810038512445        2.12872542791003       -0.07288154635811
H            3.50478305345284       -1.60357546891185        0.08161733505827
H           -1.71286302736545        3.16990617607374       -0.04246067742129
H           -2.88151596034067        2.17932221538425       -0.96333535532986
H           -2.93428493250257        2.17402246818028        0.80158929062294
H           -1.18271077099711       -3.08820872106201        0.84327668255442
H           -1.18949852531475       -3.08833170850942       -0.92832250264075
H           -2.61845495293186       -2.48383163900471       -0.03850153728144
H            2.39016525869350       -3.73441995028174       -0.18979610854682
25
 energy: 23.059539387971 xtb: 6.6.1 (8d0f1dd)
C            3.20652155410082        1.16639970460860        0.09271485520565
N            2.23470195379015        0.09112433740480        0.05097929033063
C            2.43799470778925       -1.23636586916868        0.05651277169458
N            1.38360154982059       -2.02684190840831        0.03130317955682
C            0.36267878800846       -1.06247441622126        0.00441512732632
C            0.86455183795672        0.23596417161084        0.00889586445760
C            0.06864363419425        1.43203637153454       -0.01247720652310
O            0.44988396501877        2.57868168502850        0.00240525404017
N           -1.30544827928909        1.13748060372224       -0.03861334248323
C           -2.26334787900793        2.23141840668841       -0.06209267450752
C           -1.84978216677914       -0.13450720079817       -0.04504713547057
O           -3.04790425332601       -0.30857508824169       -0.06393984879395
N           -0.98240977184347       -1.21506715813172       -0.02694306219703
C           -1.52862608699652       -2.55912929603740       -0.03966442128662
H            3.69882387067014        1.21327589654996        1.06568592276134
H            3.96419158529041        1.03193364768122       -0.67867442775086
H            2.70177467347135        2.12331128567532       -0.07475487249536
H            3.45116685849405       -1.61892125395206        0.08481690121364
H           -1.71379279502785        3.16973884795465       -0.04329133802789
H           -2.87597292161759        2.17451902852013       -0.96315962687036
H           -2.92941195309853        2.16876812452909        0.79951578657741
H           -1.17931427898058       -3.09147173548850        0.84291834946814
H           -1.17987281078339       -3.08461624365194       -0.92766386172286
H           -2.61319595757551       -2.48601597839106       -0.04071798366430
H            2.55675848069311       -3.94163717427350       -0.19608958864405
25
 energy: 20.563513034808 xtb: 6.6.1 (8d0f1dd)
C            3.21059795059925        1.17247464514330        0.08995054075432
N            2.23951429196589        0.09402908225232        0.04673166279208
C            2.41393278958907       -1.22967944030734        0.05007102893984
N            1.32065084987424       -1.95445277293401        0.02892567371032
C            0.34269281199015       -1.00649865418799        0.00796868712899
C            0.87375974930080        0.27157252990037        0.01072390137510
C            0.05668032554957        1.46111602404768       -0.00623865979429
O            0.44587872068948        2.60522599008466        0.00455590347750
N           -1.29576969974476        1.13962171086969       -0.03658907576576
C           -2.26315954075649        2.23024689636122       -0.06148139473207
C           -1.85539287820296       -0.13945934959257       -0.04715027105641
O           -3.05544602867014       -0.28871719216682       -0.06760911374830
N           -0.99231730949788       -1.20940346833949       -0.02859336280827
C           -1.52317777618448       -2.55928674975723       -0.04217856131551
H            3.69839360069544        1.21254349456604        1.06481655231581
H            3.96902845188321        1.03145560275032       -0.67905054947536
H            2.70359087733348        2.12594891187779       -0.07820597000044
H            3.42517281559634       -1.62945569373577        0.07933561008701
H           -1.71695188249696        3.17093683761607       -0.04075888979451
H           -2.87401645192640        2.17075971503388       -0.96318440374816
H           -2.92768183705873        2.16243285885878        0.80043673737951
H           -1.17317996699091       -3.09155801597205        0.84020786287635
H           -1.17203076611596       -3.08087979096194       -0.93076952154876
H           -2.60808386437457       -2.48821215780238       -0.04380924347733
H            2.66952907192577       -4.18173222486045       -0.17107123137714
25
 energy: 20.635646906503 xtb: 6.6.1 (8d0f1dd)
C            3.21336553871220        1.18164364349037        0.09052028363269
N            2.24223986238715        0.10723833152509        0.04671919037236
C            2.41369344812688       -1.22458556455809        0.04910508903106
N            1.28191980138764       -1.91513293009744        0.02220918693588
C            0.33435549381789       -0.96968200313741        0.00548509049686
C            0.87921984543939        0.30178959688808        0.01414053017573
C            0.04791550790106        1.48239533058897       -0.00648245690387
O            0.44026150595624        2.63126295566590        0.00132552149808
N           -1.29554563594435        1.14533616030476       -0.03644394686919
C           -2.26736720291156        2.23292885283256       -0.06068853418649
C           -1.86198119375066       -0.13636622232737       -0.04596371969800
O           -3.06299594192426       -0.27385237292403       -0.06723006597657
N           -0.99979009246318       -1.20167460314743       -0.03083694083178
C           -1.51584952541196       -2.55521736978874       -0.04288693049480
H            3.69999705879099        1.21658278586740        1.06666861948635
H            3.97275713187046        1.03351056406751       -0.67677701266744
H            2.70654509701078        2.13273219911347       -0.07905105561949
H            3.41408981364386       -1.63380763219709        0.07268045822345
H           -1.72067787529459        3.17318450651528       -0.04064773564894
H           -2.87583172233700        2.16787322167898       -0.96268383462503
H           -2.92855686865327        2.16003626380617        0.80269389948956
H           -1.16681725430157       -3.08936064343374        0.83946788978002
H           -1.16293743339541       -3.07707605999879       -0.93113943413323
H           -2.60133575418538       -2.48997769943791       -0.04603240455865
H            2.72554070050110       -4.41075252255248       -0.15711777471403
25
 energy: 20.674409185870 xtb: 6.6.1 (8d0f1dd)
C            3.21373916538120        1.18831223132360        0.09026091982777
N            2.23940657859570        0.12185108828803        0.04721883116569
C            2.42385944285707       -1.21503353858730        0.04782153782936
N            1.28035130230373       -1.90015508113761        0.01898550966548
C            0.33581885457734       -0.95629506930827        0.00250064026483
C            0.87969148057170        0.31731638793691        0.01852318736730
C            0.04485322659388        1.49081352435409       -0.00376170769500
O            0.43580613352183        2.64400637265726        0.00063962846932
N           -1.29817474519915        1.14831576923709       -0.03575436670587
C           -2.26980590149318        2.23509675223035       -0.06054277480936
C           -1.86457663401660       -0.13246940514610       -0.04607352017258
O           -3.06566731854324       -0.27046429210865       -0.06776758881805
N           -1.00041594296855       -1.19827314608426       -0.03211179167422
C           -1.51123824462235       -2.55147261288224       -0.04352218618322
H            3.70196759848280        1.22029422841766        1.06640430544589
H            3.97359542840532        1.03553227963067       -0.67661632183887
H            2.70975988347048        2.13983562297385       -0.07976765305614
H            3.41457528426551       -1.62746807729309        0.06810735438515
H           -1.72173170473235        3.17422596482727       -0.03966762870434
H           -2.87635483420164        2.16887244827417       -0.96319494503916
H           -2.93030128361554        2.16012330500960        0.80265309122087
H           -1.16464474653979       -3.08745271623367        0.83929771078889
H           -1.15864761599692       -3.07498731359337       -0.93160502050028
H           -2.59749073653519       -2.48892199982314       -0.04783625564488
H            2.71783963441038       -4.55257393421878       -0.14715704339394
25
 energy: 20.364483947974 xtb: 6.6.1 (8d0f1dd)
C            3.21518335416842        1.19578328222153        0.09143630879945
N            2.23562541757531        0.13980409216790        0.04879057839066
C            2.43987465796301       -1.19813901254025        0.04708801080988
N            1.30052056178005       -1.88990128404083        0.01435462820582
C            0.34195141359157       -0.95467856549348       -0.00014110852392
C            0.87829706593155        0.32489374666301        0.02141327096025
C            0.04527286910953        1.49282870616806       -0.00442266415961
O            0.43261553527947        2.64951103701368       -0.00187777008085
N           -1.30092330490741        1.14900727360760       -0.03592878564074
C           -2.27103530760313        2.23570923507161       -0.06048571671813
C           -1.86356020685659       -0.12892299111574       -0.04548508696452
O           -3.06450657338751       -0.27344242510610       -0.06679641022348
N           -0.99652912368003       -1.19844134774051       -0.03203051728474
C           -1.50828788859832       -2.54932207178379       -0.04349729517318
H            3.70424817228929        1.22475229378821        1.06780925896774
H            3.97514595898663        1.03787307177132       -0.67511091654220
H            2.71539433929694        2.14885718429987       -0.07952192952967
H            3.42219961932676       -1.61603739233388        0.06639336247587
H           -1.72213986347719        3.17428119914613       -0.04029356455039
H           -2.87774416924332        2.16925860817057       -0.96284126795526
H           -2.93070352681180        2.16096332659226        0.80317886867780
H           -1.16397004356053       -3.08731932608090        0.83955993897163
H           -1.15764359159763       -3.07488938894617       -0.93165378092100
H           -2.59536323671276       -2.48755294659147       -0.04793414470922
H            2.65829217611015       -4.65584751616455       -0.14496935508763
25
 energy: 19.973380409006 xtb: 6.6.1 (8d0f1dd)
C            3.21748155727925        1.20333636763135        0.09098312538780
N            2.23458852660333        0.15500017048716        0.04933673100139
C            2.45498326494391       -1.17959211663906        0.04663627147635
N            1.33281999151374       -1.88448208238472        0.01471088425761
C            0.35033920658157       -0.96349836365107       -0.00059353199069
C            0.87627664345564        0.32302259175254        0.02302375828196
C            0.04823021325324        1.48975731534762       -0.00272222809271
O            0.43121345202899        2.64785850976228       -0.00044297590281
N           -1.30283021282685        1.14823681411470       -0.03544490197655
C           -2.27138173348431        2.23508455856111       -0.06055277208964
C           -1.85900841787870       -0.12667116134965       -0.04602907711199
O           -3.05975443512587       -0.28055624401026       -0.06783673439828
N           -0.98935440394512       -1.20079695358186       -0.03147008596017
C           -1.50681777000452       -2.54909598054782       -0.04389969919111
H            3.70674347203242        1.22947887040691        1.06733225106260
H            3.97553795491642        1.04141897097103       -0.67660078194800
H            2.71987481175047        2.15746171969065       -0.07995119280965
H            3.43299838830476       -1.60623657366824        0.06620859935346
H           -1.72232154310157        3.17370113952020       -0.03956160487711
H           -2.87783565485633        2.17013753036532       -0.96344887959991
H           -2.93219937788231        2.16116609451140        0.80252005839150
H           -1.16427044167582       -3.08816952441303        0.83938968106317
H           -1.15747719380243       -3.07579236372107       -0.93211022428133
H           -2.59415451926607       -2.48600011740622       -0.04857399015876
H            2.56853252615859       -4.70574038300526       -0.14386876769258
25
 energy: 19.819838605920 xtb: 6.6.1 (8d0f1dd)
C            3.21900953194580        1.20679821486358        0.09194255699063
N            2.23716318064703        0.15827778745073        0.04889012252673
C            2.45884288364457       -1.17220221957660        0.04713743413179
N            1.34961584596057       -1.88452530648350        0.01490039335146
C            0.35434349798327       -0.97162741447574       -0.00074469908372
C            0.87555234910520        0.31728886076033        0.02028641565347
C            0.05046584265248        1.48653536954370       -0.00497662566755
O            0.43169885544776        2.64381069630883       -0.00172611709121
N           -1.30293930061191        1.14744556008746       -0.03604117369664
C           -2.27107656417785        2.23421648194191       -0.06048731936809
C           -1.85569455578698       -0.12690012814992       -0.04553027385908
O           -3.05638133628700       -0.28488356520748       -0.06653970537538
N           -0.98527676188514       -1.20216076160868       -0.03122132000444
C           -1.50714270041708       -2.55021684255115       -0.04350094707180
H            3.70655375246025        1.23126493460347        1.06878903731395
H            3.97637270154384        1.04387255161696       -0.67546854367304
H            2.72099479556487        2.16073213214577       -0.07898198894956
H            3.43788149976614       -1.60338063555523        0.06855311208032
H           -1.72204961069476        3.17307591616988       -0.04043283776346
H           -2.87881242754181        2.16948604345743       -0.96278477048133
H           -2.93135236357481        2.16129565327473        0.80332346817929
H           -1.16397704015024       -3.08896408089007        0.83958385442230
H           -1.15878663996545       -3.07677792158596       -0.93194462070423
H           -2.59415019624783       -2.48571635044396       -0.04726458329500
H            2.52135906559152       -4.69771618695243       -0.14872695637084
25
 energy: 19.783431601639 xtb: 6.6.1 (8d0f1dd)
C            3.21930148215440        1.20740242215088        0.09086218921081
N            2.23913924826661        0.15688785401107        0.04852117419105
C            2.45787466841097       -1.17168339784902        0.04784452993086
N            1.35249068055312       -1.88591553963652        0.01787392958532
C            0.35493354983597       -0.97435391439918        0.00044601517492
C            0.87536993564059        0.31446067668951        0.02001951002224
C            0.05099845332322        1.48548021092604       -0.00314464014181
O            0.43229207279387        2.64196696087565        0.00074464910451
N           -1.30265449249922        1.14733722814241       -0.03552544471874
C           -2.27086793773888        2.23402297526693       -0.06058260289276
C           -1.85487562937918       -0.12759354910552       -0.04591004417056
O           -3.05557089919686       -0.28549795724913       -0.06771358103334
N           -0.98460427182560       -1.20208862091388       -0.03115162042997
C           -1.50762279949322       -2.55081924785146       -0.04380574396003
H            3.70716240007652        1.23166105815091        1.06733908731813
H            3.97569651352110        1.04434168446450       -0.67728215212213
H            2.71995331523215        2.16053228206045       -0.07971431022841
H            3.43859328942219       -1.60295082521597        0.06873161277026
H           -1.72200067921520        3.17299689041968       -0.03961149247252
H           -2.87777976502384        2.16971360051813       -0.96350642781495
H           -2.93213306473156        2.16094480028094        0.80250577199464
H           -1.16451664611513       -3.08911455386262        0.83931462125584
H           -1.15848989409828       -3.07675324560357       -0.93217187626856
H           -2.59433947081616       -2.48580909408485       -0.04809604541770
H            2.51386424587489       -4.68613990944138       -0.14895319669252
25
 energy: 19.776641860755 xtb: 6.6.1 (8d0f1dd)
C            3.21936373702954        1.20744080352387        0.09165239722050
N            2.23991277095689        0.15610675714012        0.04818189270284
C            2.45709754341230       -1.17195564060533        0.04797028260161
N            1.35213421351746       -1.88631789715689        0.01757519144897
C            0.35482229094076       -0.97452024210677        0.00003640998700
C            0.87528663956719        0.31401818530049        0.01854551244225
C            0.05097538789576        1.48552084670871       -0.00490583898729
O            0.43246265084444        2.64177928250676       -0.00084008369121
N           -1.30251640362699        1.14744237199659       -0.03611331571588
C           -2.27085506359124        2.23399782004768       -0.06048476061626
C           -1.85489521254548       -0.12798622836856       -0.04561911118879
O           -3.05563743818926       -0.28523994434550       -0.06668750773168
N           -0.98476249076404       -1.20175003887506       -0.03129315390699
C           -1.50774964689644       -2.55100928184661       -0.04344241803295
H            3.70644947092344        1.23124649291175        1.06847773961932
H            3.97635085805047        1.04459607752183       -0.67589766386515
H            2.71982208339497        2.16034684701284       -0.07897637104231
H            3.43845611748545       -1.60282394550021        0.06935613917027
H           -1.72200096105935        3.17300116637869       -0.04023086543247
H           -2.87854320809337        2.16937954284040       -0.96285912212292
H           -2.93132331304115        2.16105714486241        0.80321937548299
H           -1.16396387828788       -3.08896333955475        0.83957526256402
H           -1.15887839815172       -3.07678714083492       -0.93191358158280
H           -2.59438864451055       -2.48600342527064       -0.04721315490399
H            2.51459519971124       -4.68354742554286       -0.15107934222448
25
 energy: 19.775739769424 xtb: 6.6.1 (8d0f1dd)
C            3.21933490770136        1.20748551529561        0.09099939947421
N            2.24020089741855        0.15580373107158        0.04813497441936
C            2.45673444231996       -1.17210484965069        0.04840865294337
N            1.35168116730411       -1.88644816109377        0.01886457270804
C            0.35475087899304       -0.97429034069476        0.00060718481922
C            0.87515131590036        0.31409506758110        0.01900388255182
C            0.05083974702617        1.48568873307409       -0.00369296943404
O            0.43251040424056        2.64188199621946        0.00046150127448
N           -1.30244548249423        1.14755926924055       -0.03570410993752
C           -2.27084684216875        2.23402331959426       -0.06058270439052
C           -1.85496629109070       -0.12827959282095       -0.04565332133396
O           -3.05573482437846       -0.28492553911378       -0.06727757053299
N           -0.98492824028354       -1.20148587563587       -0.03113960152971
C           -1.50775514986842       -2.55105600285042       -0.04366468756872
H            3.70696022812867        1.23144344397141        1.06756126417959
H            3.97600515072685        1.04453531881341       -0.67693268415068
H            2.71955254817233        2.16017920847581       -0.07953337121084
H            3.43831921683056       -1.60267399869154        0.06928756932379
H           -1.72203091987367        3.17302672728037       -0.03987772412117
H           -2.87792900368836        2.16947158200971       -0.96335702592963
H           -2.93186985350477        2.16096348821306        0.80267557631409
H           -1.16421235047080       -3.08901963078143        0.83935152298843
H           -1.15849077998996       -3.07656879524662       -0.93212519504218
H           -2.59435994731950       -2.48602425940618       -0.04781522273740
H            2.51574308534107       -4.68425156611038       -0.15096600088246
