72
 energy: -99.668098637509 xtb: 6.6.1 (8d0f1dd)
N           -2.09380664532915        2.52556112605320        2.57096496635796
C           -1.67977405842470        2.18560433416837        1.44738819403284
C           -2.74694853230170        2.02970870424624        0.38049298805891
C           -3.30743079758296        0.60080411815779        0.34567644734144
C           -4.28040639781263        0.20881319808256       -0.58642387564685
C           -4.81234273004901       -1.07151369152085       -0.59387282948749
O           -5.77730948487796       -1.53348582177553       -1.44366307915627
C           -6.33586648147740       -0.66372325294904       -2.39285000127509
C           -4.36924414381877       -2.02325191119709        0.35236796398824
O           -4.98420580779498       -3.24114475410846        0.30673187443413
C           -4.66461678754550       -4.19304272582973        1.28985980072721
C           -3.36930236450139       -1.65613904396174        1.23085751044704
C           -2.84145244657340       -0.36897146011200        1.21399174417499
C           -2.16162054322148        2.29992059813561       -1.04916910203851
C           -1.24012205662353        1.20273412761948       -1.65757638892526
C            0.07499905591209        1.09440182051336       -0.99077792776780
N            0.63270731533672       -0.07501460315411       -0.50209476199994
C            2.02196152970765       -0.08624343075782       -0.14953241605932
C            2.96979743008121       -0.54061299227769       -1.28869944651854
C            4.39785458198309       -0.44729126192994       -0.84942547272128
C            5.12967429379448        0.70949811911969       -1.05019504192399
C            6.44401898435093        0.80641813973718       -0.61664558547391
C            7.04945770766568       -0.25386353027682        0.03426289513988
O            8.33361164442986       -0.27293141461425        0.49754559301497
C            9.13552193783125        0.86085895156546        0.29345301625179
C            6.31035739233527       -1.43812559735984        0.25409038667618
O            6.98912418588429       -2.43040956514473        0.89914101048641
C            6.34164415948630       -3.65511077325461        1.12405012507449
C            5.00240566971179       -1.51655581237603       -0.18452129313682
C            0.00582343971505       -1.34648522967721       -0.74433682676116
C           -3.88195193521039        3.08284660572679        0.81523236301299
C           -4.17128966345903        3.44464041458063        2.34707272736690
C           -3.73936993701072        4.41346335725355        0.08434807912794
H           -4.63382332255305        0.91693504075645       -1.31993279355198
H           -6.80327457285875        0.20686377687487       -1.92075814942861
H           -7.10185958072375       -1.24434432667428       -2.90680469419863
H           -5.59090649276056       -0.32859412735307       -3.12267837511396
H           -4.84986606068353       -3.81089424865937        2.29945929788318
H           -5.32225000970522       -5.04140248021994        1.10187102594317
H           -3.62286416503468       -4.52404603659006        1.21416703644649
H           -2.99523447529085       -2.36258910701542        1.95553006833709
H           -2.05877308178526       -0.12529615271148        1.91325206612651
H           -2.98179891610685        2.42532583104259       -1.75994814970738
H           -1.58769860614233        3.22738190165026       -1.04650104805432
H           -1.75685755746261        0.24412686240067       -1.67676632281888
H           -1.07911735352585        1.48983397225433       -2.71451688432317
H           -0.62818569074019        2.03086072000135        1.18010964805383
H            0.68082257130325        1.97738166695669       -0.89669036888792
H            2.15615295816443       -0.75565376293338        0.70765718063080
H            2.31170714652673        0.92080636835966        0.15890823618340
H            2.79786672076175        0.10244525445642       -2.15333188164758
H            2.72415711328853       -1.56719205095328       -1.56491685435412
H            4.68007108586181        1.54801953474192       -1.56104582854859
H            6.98948558712132        1.71853175207735       -0.80038160773136
H            8.72572222664111        1.74448980333396        0.79500010306553
H            9.26786655495602        1.07844186111777       -0.77204610037310
H           10.10212411013674        0.61611647947443        0.73159331071921
H            7.07596639403039       -4.28468655310560        1.62490761602735
H            5.46587638826516       -3.53875118983955        1.77207936751832
H            6.03787680044326       -4.13294879392015        0.18627442362918
H            4.43006813477368       -2.41798240320055       -0.02680448252065
H           -0.02098086988364       -1.62208202702419       -1.80774939105502
H           -1.01763508874415       -1.32904446601590       -0.36427338813233
H            0.55990740566091       -2.11411758808378       -0.20626857727180
H           -4.82042417442066        2.61173364831387        0.49638086594829
H           -3.71955305611093        4.27038555919143        2.97525691033377
H           -4.23138736749711        2.51057731563108        2.89798524637255
H           -5.14613421705418        3.90036768916946        2.32360837138214
H           -2.76403070412820        4.84419142891963        0.29390517837078
H           -3.87287927466244        4.34454217652560       -0.99366054616773
H           -4.50822508309456        5.07818696928228        0.46876854005246
H           -1.54004477963523        2.80554432974362        3.35852618150523
