72
 energy: 0.783639734401 xtb: 6.6.1 (8d0f1dd)
N           -1.62874372257376        2.88529152748528        2.33888943622959
C           -1.70626627592278        2.16589365107387        1.31307639730482
C           -2.88868901277465        2.11986245465011        0.35993140187431
C           -3.44279853853777        0.68468092778911        0.41389563739592
C           -4.32302772809575        0.20251767407377       -0.56074020328014
C           -4.84380666121566       -1.07517420695026       -0.53966772248862
O           -5.76167626617039       -1.56950645787830       -1.42249465868005
C           -6.25084645774256       -0.70257308606625       -2.40643231756144
C           -4.46917140516766       -1.95926209672005        0.48537749953475
O           -5.05643984626435       -3.18887153436454        0.42772561268942
C           -4.79240599248881       -4.10187239458133        1.45890090199178
C           -3.54757720408404       -1.52366891164524        1.41717317558491
C           -3.03937617380964       -0.22823429569157        1.37414615962089
C           -2.21977493427331        2.29755481734747       -1.06685878267084
C           -1.26641065931289        1.18437571126912       -1.61386971448520
C            0.08082678457633        1.10073380167747       -0.96747368689000
N            0.67463503906329       -0.09491607792903       -0.57719849188965
C            2.05063239459062       -0.08339234900476       -0.19661421682386
C            2.99141519760190       -0.56095705956725       -1.33008572522643
C            4.41488947081489       -0.44690309394539       -0.88757161908844
C            5.13781332870101        0.71543325880325       -1.08995291796343
C            6.44472754348354        0.83327316992941       -0.63108016878129
C            7.04981478391305       -0.21326904461836        0.04206516316930
O            8.32487666038931       -0.20875654435162        0.52375500474711
C            9.11528885237010        0.93242756725506        0.30499054319378
C            6.31947549285560       -1.40296395617585        0.26052810435224
O            6.99520491535817       -2.38170862726696        0.92763254006037
C            6.34698040348521       -3.60507501767314        1.15205855975695
C            5.01896993656320       -1.50033580368037       -0.20043603951983
C            0.01745546945423       -1.37061863080167       -0.67261060999706
C           -4.02199263001300        3.27197895512227        0.64672560288138
C           -4.67195343356436        2.95055850788739        1.97444300847420
C           -3.43476159474682        4.67623491064105        0.66323979217604
H           -4.58189888211990        0.86484316658666       -1.36936628019723
H           -6.70898336920225        0.18824242380978       -1.96479503369773
H           -7.00334453739792       -1.27465116776918       -2.94612455446430
H           -5.46075652017689       -0.38707998858250       -3.09334990293212
H           -5.06172531949638       -3.69428271571481        2.43860135365619
H           -5.41047843146707       -4.97404351601723        1.25076389112860
H           -3.73899727822988       -4.40065965329577        1.47405153376804
H           -3.23302691733442       -2.18944002801284        2.20420955424824
H           -2.32442694212947        0.06620427343640        2.11820118610848
H           -3.02491072660895        2.42254162343150       -1.79329088276807
H           -1.64239821485587        3.22348439004943       -1.08206042826011
H           -1.75699963492718        0.21582688042173       -1.57029966893124
H           -1.13250262076058        1.42167146399255       -2.68825185096780
H           -0.86630958805957        1.53060672164426        1.02445729845601
H            0.75921781857226        1.92249816516867       -1.13128054158623
H            2.19200094177716       -0.71522938964814        0.69305852542965
H            2.32105528834258        0.93752216309296        0.07270260599847
H            2.82111492383109        0.05638719652477       -2.21742314017650
H            2.74800196874081       -1.59490133359754       -1.58316222624870
H            4.68870628109495        1.54302148920248       -1.61825709654041
H            6.98765737654527        1.75084413210310       -0.80489648896385
H            8.68794407404884        1.81868161935596        0.78529638486479
H            9.25524587152844        1.13722374415409       -0.76427177360998
H           10.07998264508648        0.71127718593857        0.75558090372159
H            7.06995722150304       -4.22931523947488        1.67768776103106
H            5.45417039658626       -3.48016394415032        1.77640932489923
H            6.06145865791813       -4.08982468381421        0.21106413963136
H            4.45218041882801       -2.40427878487067       -0.04288130448444
H           -0.21056295361345       -1.65238464792390       -1.71228694291935
H           -0.91375862479418       -1.36136368097663       -0.11595318604540
H            0.65057746051682       -2.15140214144350       -0.24466813569979
H           -4.80664274757715        3.30673328318787       -0.12864501370607
H           -3.90621433089118        3.00941510752660        2.74665558282192
H           -5.10141035260094        1.95107027819138        1.96853893544550
H           -5.46261333652051        3.67859504340842        2.16163836642953
H           -2.61178505180406        4.73785913539299        1.36874323131837
H           -3.10512845098788        4.96946061118446       -0.33081139878351
H           -4.20345360669663        5.37907900666088        0.97811940072024
H           -0.75020690282171        2.80223248922765        2.84560290430826
