72
 energy: 27.002666444431 xtb: 6.6.1 (8d0f1dd)
N           -2.18096182673783        2.82844681866087        2.50981594459766
C           -2.25982166524653        2.04348271438793        1.58630416765328
C           -2.60095847719947        1.41300552938470        0.48546013678176
C           -3.41641652106971        0.20394439723211        0.52073851942704
C           -4.04262167047835       -0.29229975596363       -0.62571294400814
C           -4.72881713762435       -1.48683575864928       -0.59136142844001
O           -5.32074072581996       -2.05096751687789       -1.67954901475383
C           -5.31737248205556       -1.34053815288985       -2.90010973852487
C           -4.81468506628867       -2.20146023691372        0.62039623564426
O           -5.46694967213554       -3.39101662938809        0.53681132828736
C           -5.58575653001100       -4.15182066469151        1.70212895203152
C           -4.25112060658326       -1.66434747912995        1.76668748797082
C           -3.57744269886082       -0.46215024445677        1.72384138951385
C           -2.07985492572128        1.96367501933969       -0.81888371215602
C           -1.11170304264589        0.96276553547276       -1.44771545084476
C            0.09480377112247        0.72849645682266       -0.54087941732714
N            0.98032231880061       -0.28503717001363       -1.08714837883092
C            2.34042625505759       -0.25178183298760       -0.59141307478154
C            3.33315446095567       -0.61573471123537       -1.71227657174378
C            4.73919615834963       -0.48825017487621       -1.20542875673666
C            5.47552556031879        0.65777517121565       -1.42875313859257
C            6.76244255186583        0.78892841704104       -0.92331874798069
C            7.33241925747236       -0.21942551723289       -0.16971274964378
O            8.57886053752750       -0.19203296398952        0.38411490395999
C            9.39053945011484        0.93731351643313        0.17839865986696
C            6.59130897086958       -1.39888507111498        0.06229465023284
O            7.23143382779447       -2.33884895945715        0.81455206647905
C            6.56140520551070       -3.53682649283076        1.10997582099022
C            5.31360155298302       -1.51469847196229       -0.45456847025049
C            0.41639729078162       -1.61521622394666       -1.14016667930717
C           -5.22108871952195        5.24282269309914        1.27315840633444
C           -5.57677456044884        4.11957898833279        2.18237620171683
C           -3.82062913126334        5.70532262308004        1.12347911785921
H           -4.01045150883555        0.28144928490773       -1.53846262752527
H           -5.82421720556161       -0.36498980950088       -2.84683186370131
H           -5.88897098897962       -1.97386854570747       -3.57407248372037
H           -4.30456300435114       -1.19992830545373       -3.30000240932344
H           -6.13229259189675       -3.61500751522935        2.48488164856023
H           -6.14780598018729       -5.03146516402255        1.39122729321437
H           -4.60171289570883       -4.44756835285825        2.09065960617610
H           -4.28051018431622       -2.17817560516041        2.70788397342860
H           -3.13979677842933       -0.04883079884531        2.62132764253228
H           -2.90112208313385        2.17874751753501       -1.50468583393240
H           -1.56661222725762        2.90716029581110       -0.61776744377371
H           -1.63833400675192        0.01898999396651       -1.58972116225254
H           -0.77765823951237        1.32480247029369       -2.41522117190091
H           -0.30707409519630        0.48708258913348        0.48029172049883
H            0.68246743830647        1.66040556081868       -0.47007293926050
H            2.50063844403548       -0.93193618842636        0.25900585614155
H            2.57661464774720        0.76176000301926       -0.25314661972940
H            3.17633096206069        0.05241620352044       -2.56167511106723
H            3.14624831611875       -1.63603995792166       -2.04895861751185
H            5.05967218257422        1.46474588613586       -2.01290044144969
H            7.31329815813641        1.69308071207488       -1.12578830184182
H            8.94479136337099        1.84148546052899        0.60487703729895
H            9.59794748748162        1.10480761550078       -0.88411633879126
H           10.32536485451631        0.72184363035633        0.69499467107651
H            7.24946839522727       -4.10711341691254        1.73292646338725
H            5.63495426734991       -3.35497201447822        1.66609016714553
H            6.33687453861202       -4.10988950397082        0.20380697926141
H            4.75113726279108       -2.42058377912770       -0.29185681290268
H           -0.37103847802208       -1.64615689085315       -1.89287396958121
H           -0.00634270633737       -1.96961014963187       -0.18958350717363
H            1.19730779499155       -2.30858256286179       -1.43573114023095
H           -5.98808684681940        5.67838972246441        0.64535477676757
H           -4.71201623656115        3.68628747474237        2.67875094400524
H           -6.11842830893541        3.30184747005735        1.69204722057654
H           -6.26030769842532        4.51742971099838        2.94471292320249
H           -3.11094863582600        4.95434380871849        1.45177238547915
H           -3.57276871417100        5.99783167118702        0.10030413650451
H           -3.68720673515042        6.60036470663335        1.74796682936969
H           -1.43841512840024        2.84133011893698        3.19442871550860
