72
 energy: 23.654340620121 xtb: 6.6.1 (8d0f1dd)
N           -2.26245478288269        2.89021257867504        2.52364083520212
C           -2.34209988039052        2.10432278350898        1.59982610099532
C           -2.64355666049161        1.45233636447831        0.50463414840232
C           -3.41385386118736        0.20926732188801        0.54236777144336
C           -4.02412740205687       -0.30094511378890       -0.60915317230944
C           -4.71064565509524       -1.49918387363738       -0.58100699653645
O           -5.32795727432459       -2.07414577955019       -1.65296800170547
C           -5.30005315012389       -1.40989058014773       -2.88962458377299
C           -4.80784246288572       -2.22638512599914        0.62641313844335
O           -5.48588880067103       -3.40668865945458        0.54423486314739
C           -5.62393333939224       -4.18649939665298        1.70321154816033
C           -4.22962053721781       -1.70536668094681        1.77090243414178
C           -3.54104600410080       -0.50396827776066        1.72845074746255
C           -2.05997241072725        1.96485156657124       -0.79627847009288
C           -1.10995561220774        0.94469826555828       -1.42858799977471
C            0.09822111177201        0.66685555102560       -0.53348062384886
N            0.99778316766045       -0.29820854278406       -1.13667939601049
C            2.35362116778717       -0.26626780670826       -0.61905433897095
C            3.36249914401346       -0.63513720155456       -1.72086180499187
C            4.76619759334235       -0.49427611265129       -1.21116399486944
C            5.50231643747112        0.65099318764620       -1.44371409547076
C            6.78610581123404        0.78941190892690       -0.93179221470123
C            7.34923273803404       -0.21804343750131       -0.17046149163567
O            8.59485098443137       -0.19413370885675        0.38345990423127
C            9.40661594968126        0.93078645908072        0.16769932535367
C            6.60421027835982       -1.39336621391127        0.07681724302513
O            7.23826656483806       -2.33086194223543        0.83644715455793
C            6.57371542080600       -3.53527970962777        1.11710024412828
C            5.33065023269493       -1.51416742787893       -0.44581466516684
C            0.44221452668422       -1.63539400095835       -1.16527125989042
C           -5.22939907946011        5.26423610434040        1.27426158288524
C           -5.59988178745798        4.15339227065549        2.17177217268197
C           -3.84083450906033        5.73661043194370        1.11883865460249
H           -3.97370043246682        0.25951200933404       -1.52803755421884
H           -5.78708102355626       -0.43009777236031       -2.83634414616651
H           -5.85643364916861       -2.04857822792597       -3.57442081887018
H           -4.27749028123986       -1.28754661617624       -3.26395808587974
H           -6.19056427391711       -3.66270328694203        2.48078779039334
H           -6.17635851436226       -5.07204128880139        1.39190592121056
H           -4.65202046547990       -4.49147997893820        2.10655726520862
H           -4.30078143363892       -2.23304051621674        2.70918037373661
H           -3.08895167238994       -0.12181195860542        2.63219850684058
H           -2.87109765394037        2.19342251415517       -1.49183797964437
H           -1.52379493550628        2.89611294699578       -0.60138825718485
H           -1.65127654376398        0.01594332923582       -1.60183927940227
H           -0.75738028248823        1.32037971838850       -2.39069528748794
H           -0.25959782775655        0.33392015163546        0.45848515510271
H            0.64771843734034        1.60293363971323       -0.39671416679644
H            2.49121210597124       -0.93866664754460        0.24402185189020
H            2.58132224882296        0.74847934828777       -0.28358230030815
H            3.19682343499049        0.02849034169847       -2.56992384201446
H            3.18760162781754       -1.65971597257686       -2.05209332278716
H            5.08212693501908        1.45018127420068       -2.03595158532843
H            7.33677397158216        1.69394277822584       -1.13716464959940
H            8.96282059843405        1.83912954328163        0.58963541135757
H            9.60908566383944        1.08728973430033       -0.89733278530141
H           10.34171515840824        0.71553112077537        0.68299579618696
H            7.26240734837378       -4.10851565148421        1.73626150344278
H            5.64442660283296       -3.36783067817218        1.67241176743472
H            6.35413389636330       -4.09967337358791        0.20424992649505
H            4.75385188412082       -2.40960815819747       -0.27121985790472
H           -0.37141055317473       -1.67793450286003       -1.88781335803057
H            0.05489209444847       -1.95817255205392       -0.18522022743855
H            1.20569832776453       -2.34040899268119       -1.48499283712493
H           -6.01689042922389        5.79855921291723        0.77001672746002
H           -4.72070916169718        3.71556029321918        2.63705565268109
H           -6.12916362026921        3.36913985654671        1.62095356782483
H           -6.28753420000133        4.49197793933683        2.95452910801164
H           -3.13516680008710        4.96791666090889        1.42752323813147
H           -3.63992637125399        6.02541806140858        0.08541899443541
H           -3.65580727965625        6.62790320522483        1.73280463964260
H           -1.51095165741786        2.87560813064921        3.20185871300114
