72
 energy: 43.275624049065 xtb: 6.6.1 (8d0f1dd)
N           -1.87535166504838        3.00589820818635        2.48743169605054
C           -1.98585512154348        2.18174557632038        1.54764949311488
C           -3.11240249026815        2.17402860734460        0.51175730417725
C           -3.63705114396827        0.71225653132509        0.52828336315700
C           -4.28907588449949        0.12051688421700       -0.56724647987750
C           -4.80882496966787       -1.15941197114147       -0.55796934361223
O           -5.62381212732231       -1.68203782221226       -1.52329357527276
C           -6.01902762034808       -0.84249149256766       -2.57538332641896
C           -4.57342568217446       -1.98688584055271        0.54780126912271
O           -5.16495467091250       -3.21508950451947        0.47631265188979
C           -4.98684439824624       -4.10262135673975        1.54520499038083
C           -3.74224514694515       -1.50360794997970        1.54326309086006
C           -3.27587972860387       -0.19060096911597        1.52619677926881
C           -2.25786841568221        2.29368916785298       -0.87012123966442
C           -1.29550360226137        1.15300653734025       -1.44217338237630
C            0.10945808064504        0.99843560145394       -0.89898553393310
N            0.75565696768422       -0.20727755738926       -0.65908126724407
C            2.13040405406759       -0.16038016275191       -0.28279589568675
C            3.08154382262298       -0.59187380670249       -1.42365418433293
C            4.50187977148633       -0.46854197869149       -0.96647009246462
C            5.23081195081477        0.69152527504537       -1.16709003752489
C            6.53331011376439        0.81748550994260       -0.69104120006941
C            7.13051438987593       -0.22007304510899        0.00298737748027
O            8.40015094351311       -0.20319244849133        0.50517438739416
C            9.18689306863280        0.94108033592226        0.27979177368230
C            6.39527325950924       -1.40668315157697        0.22119747805333
O            7.06365632987510       -2.37693799410328        0.91036007280471
C            6.40099497781319       -3.58853126148001        1.14890011908116
C            5.09992363239689       -1.51245077301925       -0.26012244778217
C            0.12340835595123       -1.48231435211822       -0.80753183427869
C           -4.23584241063016        3.62664430843058        0.77869803213079
C           -4.94375001758439        3.22796161271746        2.03090421530035
C           -3.46481327230479        4.91866498303225        0.84847144477017
H           -4.44933707914628        0.73041363861301       -1.44380364927249
H           -6.50304236702343        0.07449543070837       -2.21993372379522
H           -6.73351097290761       -1.42021799122092       -3.16040831271663
H           -5.16167383210122       -0.56837042173100       -3.19475132603535
H           -5.32930017696087       -3.66923352578275        2.48932676883073
H           -5.59297495100014       -4.97836826374226        1.31097009145509
H           -3.93822765719103       -4.40281403760431        1.65341441660400
H           -3.47977023056778       -2.14550925216489        2.37052465852207
H           -2.61506600086291        0.11172133833857        2.31970209926519
H           -3.01087711905477        2.47703092129687       -1.64203965308374
H           -1.63174922782012        3.19248125558606       -0.87332061979112
H           -1.75081025380792        0.16377052253501       -1.40868659119511
H           -1.28321651851490        1.45584811787792       -2.52225763832214
H           -1.24235464014881        1.38087854758646        1.46832361011270
H            0.83137074427882        1.75864497691027       -1.23701225425647
H            2.29791985372648       -0.79745561480951        0.60176679391182
H            2.37733146712907        0.86157305306250        0.00136348389756
H            2.90880561290543        0.04374852077062       -2.29958138490345
H            2.85000121159725       -1.62253695671212       -1.70165680618551
H            4.78909032991749        1.51393455849913       -1.70933297302277
H            7.08334283874969        1.73339126440272       -0.86523565519255
H            8.75135558886251        1.83201398533140        0.74271664784014
H            9.34114179396916        1.13374546571574       -0.79019080548217
H           10.14777050261385        0.73950856515997        0.74500243362213
H            7.10960079928580       -4.20204597744356        1.70906080283854
H            5.49257208756406       -3.43815993848150        1.74650501169263
H            6.13379283588043       -4.08989556048044        0.21089010693354
H            4.52903601294115       -2.41433382371342       -0.10528606050273
H           -0.19126711744239       -1.68416393294412       -1.84693394643867
H           -0.74439674296360       -1.57095829514870       -0.16945658830022
H            0.81607690270409       -2.28158958883230       -0.52874903122463
H           -5.00875171064236        3.87792292492112        0.02985020260864
H           -4.20255389204366        3.16989594450309        2.82193733223400
H           -5.44241801684591        2.25608574668667        1.94720549150321
H           -5.66920223076282        4.03224238057312        2.21193084591678
H           -2.59720579968585        4.87367927507133        1.49639416491275
H           -3.19042073564585        5.22711348697909       -0.16465490570312
H           -4.13475385371805        5.66695606602576        1.26433155168355
H           -1.01528357304964        2.85224298783182        3.01222887430616
