72
 energy: 61.861958547914 xtb: 6.6.1 (8d0f1dd)
N           -1.96073088345802        2.98132311961249        2.52812246170762
C           -2.04361014548498        2.16740880343559        1.57599288071087
C           -3.10864424511798        2.11514976420553        0.50858057679386
C           -3.68038559308829        0.69255091209787        0.54538809292207
C           -4.27564961821323        0.08316346112626       -0.57122548910721
C           -4.79885933064431       -1.19232863885595       -0.56364544778138
O           -5.57827049015411       -1.72139015572388       -1.55430427124626
C           -5.94097661466899       -0.89047562088502       -2.62779971134080
C           -4.60911337686484       -1.99767206961922        0.56718573708313
O           -5.20283730213076       -3.22504028608319        0.49227026407106
C           -5.05273718020176       -4.10335807570719        1.57189041420456
C           -3.81052186370550       -1.50204222751715        1.58556633356129
C           -3.34968104754733       -0.18878644113624        1.57348412342775
C           -2.25903788646871        2.27922708514178       -0.82708600313114
C           -1.29678286013761        1.12593622494736       -1.39561319025996
C            0.10147322185511        0.95898768155709       -0.84007468160987
N            0.78507861481061       -0.23899573379172       -0.69019707710062
C            2.15876804205659       -0.18270812732679       -0.31471610289232
C            3.11144363918085       -0.60098835207907       -1.45713124159265
C            4.53079899499618       -0.47540175696228       -0.99300983839011
C            5.26117766615180        0.68393833770901       -1.19340496992895
C            6.56240149945322        0.81222453170002       -0.71350937690951
C            7.15715494564895       -0.22209853138674       -0.01259479114543
O            8.42478878405031       -0.20126831990791        0.49653538585629
C            9.21083991253587        0.94392527098444        0.27028560163485
C            6.42036101988404       -1.40781938420476        0.20646926892136
O            7.08642687065863       -2.37507195398025        0.90256875670092
C            6.41922699380726       -3.58284424505938        1.14616100205719
C            5.12647294099159       -1.51634687224320       -0.28040949578082
C            0.15987286047805       -1.51394532978055       -0.85534379296871
C           -4.34472381240282        3.78556311185195        0.81039135263970
C           -5.02585826269476        3.32628907614115        2.04722241711106
C           -3.48349107942391        5.00327233365254        0.90147483698998
H           -4.39851239681401        0.68510974846250       -1.45950342832527
H           -6.43323836818919        0.03463460583017       -2.30374552287195
H           -6.64241986354199       -1.47121955650683       -3.22607370443712
H           -5.06404156827991       -0.63107716969332       -3.22644738507071
H           -5.41867403042713       -3.66187071362384        2.50317360143453
H           -5.65481147480864       -4.97955563230957        1.32730242257642
H           -4.00701941261987       -4.40342917268968        1.70996419347976
H           -3.56681780306331       -2.13436469515959        2.42593605884460
H           -2.70805121378723        0.12593802246049        2.38193816862135
H           -3.00196928521042        2.48321512111074       -1.60244760470422
H           -1.62908133967602        3.17767628587611       -0.80621590395122
H           -1.77571756044207        0.14716717615215       -1.36715716925609
H           -1.26271123238620        1.43158043406535       -2.46880724069029
H           -1.28167818296421        1.39285574041147        1.33676859678075
H            0.79647907510776        1.76061278304675       -1.13015173528063
H            2.33310253029246       -0.82412963443558        0.56532254742148
H            2.40236122720523        0.83823584856252       -0.02402276077269
H            2.93864086395931        0.04062957524579       -2.32873598849217
H            2.88347315099782       -1.63042096443512       -1.74252785403330
H            4.82170725132693        1.50460477626394       -1.74021240649386
H            7.11414389404459        1.72717619350900       -0.89003622401950
H            8.77331447640716        1.83592849109075        0.72872545131366
H            9.37005368737030        1.13309330894836       -0.79934939811021
H           10.17033584579334        0.74785668990479        0.74040540131337
H            7.12395315812688       -4.19354767965141        1.71394929267396
H            5.50740255646939       -3.42486889969395        1.73690626314035
H            6.15768422143629       -4.08974580200263        0.20978486529952
H            4.55445698840765       -2.41789239728700       -0.12654440546318
H           -0.18455827102234       -1.68757833461333       -1.89069187248483
H           -0.68195963758191       -1.63697734359486       -0.18806170642859
H            0.87191023442430       -2.31335122686779       -0.62665773837651
H           -5.10824751209949        4.08383767148674        0.07850749509371
H           -4.28970137142853        3.22637938568809        2.83842702208079
H           -5.54526416908268        2.36435017592402        1.93861580765873
H           -5.73118193019984        4.14886694389067        2.25052239357825
H           -2.60436861064444        4.91899061178535        1.52484846925076
H           -3.22093083112694        5.31401368019566       -0.11387164626040
H           -4.10391655995771        5.76704164596183        1.36076653205772
H           -1.09685954103730        2.85555176506966        3.05594415890998
