72
 energy: 40.384019981175 xtb: 6.6.1 (8d0f1dd)
N           -2.08148426571950        2.70070668502751        2.49120803303208
C           -2.13359075139591        1.93226765949986        1.56111579912994
C           -2.71104722620414        1.51484596970132        0.45418193029912
C           -3.51503724338267        0.33145069940133        0.51571754780702
C           -4.10461524452146       -0.19870569002503       -0.62613050461419
C           -4.74424953777742       -1.40805800739883       -0.58681886815885
O           -5.33129701342398       -1.96405966700733       -1.67182826089191
C           -5.46238881779735       -1.21516699344932       -2.85777604653313
C           -4.79220356512312       -2.11861950035947        0.62445340346747
O           -5.41362148441708       -3.32403730123948        0.54024761673115
C           -5.45693629577030       -4.11840237352319        1.68412938534902
C           -4.23030223604386       -1.55148003054988        1.75922573589312
C           -3.64829675616524       -0.30948081463751        1.73096407348245
C           -2.13125192383578        2.05053796603995       -0.81698124957365
C           -1.17473794038982        0.98762651549808       -1.38460491478740
C            0.04538045013362        0.78772654184490       -0.46474174267649
N            0.92397668004174       -0.25851556962408       -0.97434603632462
C            2.30185363622221       -0.23199443415180       -0.52162818853583
C            3.27650639473887       -0.61309264556048       -1.65351532396387
C            4.68807969586282       -0.49122321052739       -1.15289271787928
C            5.42497932625562        0.65898754999337       -1.36571910377602
C            6.71540865909617        0.79324097818085       -0.86674792820230
C            7.29205141996566       -0.22185646899126       -0.12609820034790
O            8.54592216584887       -0.19665128729177        0.41659616376122
C            9.34613301626641        0.94018970555440        0.20157595610662
C            6.55018530096203       -1.40289886694664        0.09971108232401
O            7.19754065959610       -2.35390745350714        0.82936290651979
C            6.52525821907025       -3.55095411886806        1.11633137281610
C            5.26821244293910       -1.52033232734344       -0.41018810487081
C            0.35913576539365       -1.58861178683399       -1.08858325060209
C           -5.05136819254604        4.88926863927011        1.10365270452745
C           -5.47075000680351        3.92982911569372        2.16749161438035
C           -3.73149337109905        5.54577456216589        1.07952396449850
H           -4.09884271398891        0.38394344484684       -1.53218842207304
H           -5.98077823759398       -0.25204897787293       -2.73710147477382
H           -6.07726422465459       -1.84272838363046       -3.50004709662480
H           -4.48307207170727       -1.04644028636352       -3.31603450099171
H           -5.95727323420016       -3.61111479618521        2.51141593377061
H           -6.04040267361230       -4.98261442824694        1.37356688806679
H           -4.45218504688616       -4.42950102303521        2.00616070556251
H           -4.14622466502884       -2.08964771189007        2.68157838089659
H           -3.25798422979190        0.12863118601807        2.64456405241578
H           -2.89826149156962        2.26642653004176       -1.56077361443646
H           -1.59745580888391        2.99415011633818       -0.60127055677868
H           -1.70255574128409        0.03718142058019       -1.49577603391348
H           -0.90013404063318        1.33081824604809       -2.37830103257117
H           -0.38386397389529        0.73571485235978        0.57048496783204
H            0.65750698923317        1.70286546114198       -0.50346930892254
H            2.49820934908892       -0.90889186683868        0.33254005519311
H            2.55293569355455        0.77994342287389       -0.19382815866594
H            3.11692933032914        0.04946674837188       -2.50588538869955
H            3.07871931526515       -1.63741274315966       -1.97466267892227
H            5.00247324101619        1.46934561591856       -1.94096355115221
H            7.26448315837910        1.70173002117776       -1.06463944868607
H            8.90109811231673        1.83955534153612        0.63664960674364
H            9.54034253462019        1.11474859366881       -0.86315135237601
H           10.28875344291905        0.73792598941258        0.70619525637460
H            7.21858254450022       -4.12985048808912        1.72534829953527
H            5.60332006407552       -3.37142599370384        1.68284035931846
H            6.29107238005424       -4.10985912108473        0.20360758048856
H            4.70171358449546       -2.42394974727880       -0.25055604288771
H           -0.30995294648592       -1.63997563124546       -1.95618366049603
H           -0.19502648729545       -1.90887481791340       -0.20742378542100
H            1.16561961482667       -2.31634952860617       -1.22280955929976
H           -5.81087608825338        5.30392504453881        0.46559231918967
H           -4.68473253491287        3.55975142091203        2.81975096024278
H           -6.05081049923566        3.06174635226791        1.81784497962387
H           -6.13977662161280        4.56942518497236        2.75815983400383
H           -2.95480945703127        4.93934454643060        1.49019269987873
H           -3.44788928059829        5.84788713479565        0.07214774451630
H           -3.83684792989271        6.42878010410722        1.71490381515004
H           -1.43067928609401        2.77442313048652        3.26608759681586
