72
 energy: 11.864747659837 xtb: 6.6.1 (8d0f1dd)
N           -1.70913669030554        2.93489885299249        2.39467800834005
C           -1.79678437913051        2.17288450114143        1.40150981115083
C           -2.96357489926686        2.14771361489326        0.41963818646818
C           -3.50912661338316        0.69973640111708        0.45625174341189
C           -4.31838081850527        0.17675194483571       -0.56150937096152
C           -4.83554697995809       -1.10298823655834       -0.54586268030734
O           -5.72040317413671       -1.60738370117440       -1.45648406924454
C           -6.17523555778892       -0.74866804848748       -2.46410254317114
C           -4.50388367385756       -1.96812927273770        0.50676038175066
O           -5.09096659894955       -3.19804474665465        0.44279995744648
C           -4.85651961749059       -4.10170959919696        1.48834306580187
C           -3.61140708065629       -1.51516695187496        1.45918785208371
C           -3.11821178991609       -0.21284815438419        1.42556335032668
C           -2.23330647075648        2.29918361161827       -0.99776938978688
C           -1.27720814873983        1.17865238941977       -1.55245990227592
C            0.09459833247764        1.07191057526392       -0.94637026247831
N            0.70027322718688       -0.13247351452814       -0.60095378702320
C            2.07703814742836       -0.11048400903171       -0.22333663015288
C            3.02159679784144       -0.57205196718653       -1.36023399222114
C            4.44439288027351       -0.45463114501378       -0.91389117859601
C            5.16946618256846        0.70690644533537       -1.11538538046466
C            6.47464018334065        0.82794019583203       -0.64911552326284
C            7.07712913487712       -0.21559505416194        0.03111462232299
O            8.35041035705568       -0.20678129830708        0.51930485364324
C            9.13934341764267        0.93544128225405        0.29710708582028
C            6.34525036127467       -1.40439620207741        0.24868705826785
O            7.01807631601007       -2.38041325570966        0.92348484927360
C            6.36438480549697       -3.59970019312682        1.15181704899290
C            5.04673031840187       -1.50465709124899       -0.22019021241370
C            0.05283847394504       -1.40963540042012       -0.71327210624228
C           -4.09119722349685        3.38349830154005        0.69164708208878
C           -4.76497316223401        3.04154280602460        1.99398027235680
C           -3.44755163588520        4.75803897863181        0.72552251499072
H           -4.54090052048583        0.82058118319932       -1.39644294886069
H           -6.64066573313378        0.15182750981055       -2.05002060721640
H           -6.91516421835585       -1.32151674509360       -3.02025072819005
H           -5.36036507335731       -0.44669402074776       -3.12686688624652
H           -5.15051779783328       -3.68412656979299        2.45629105323629
H           -5.47055296140154       -4.97548359482250        1.27325406148961
H           -3.80410135223125       -4.40125716818310        1.53586283092756
H           -3.31368398020453       -2.17410835133084        2.25887291359925
H           -2.42006199514467        0.08426564792234        2.18410193840555
H           -3.02059040321720        2.44514418201157       -1.74159582963655
H           -1.63778510195778        3.21470028265313       -1.01423123008868
H           -1.74421925860798        0.19816242335005       -1.51033372735496
H           -1.19904602133195        1.43754913494730       -2.63406211127077
H           -0.98094847081399        1.47174320886233        1.22252180666946
H            0.80868718148360        1.84588866895832       -1.22251734416682
H            2.22893279959200       -0.74350577207169        0.66546999002412
H            2.33735580425638        0.91141451823539        0.04976263846871
H            2.85040003574291        0.05126881615913       -2.24420501850920
H            2.78275215452566       -1.60506322372274       -1.62226529258944
H            4.72278115512774        1.53279027837568       -1.64824076730770
H            7.01999004687357        1.74545779941978       -0.82099436798724
H            8.70873683578600        1.82352717457755        0.77070202724458
H            9.28362535635501        1.13584182234445       -0.77281494396996
H           10.10297432891822        0.72148352546280        0.75236551792970
H            7.08133058393700       -4.22131874189134        1.69014202816382
H            5.46540077892622       -3.46565518356629        1.76609600106629
H            6.08487682561188       -4.08931639007023        0.21125377919963
H            4.47865532465536       -2.40780886703362       -0.06326876390950
H           -0.20364893234485       -1.66576912479039       -1.75466451515590
H           -0.85926431266537       -1.43128072563411       -0.13069983267263
H            0.70492510325029       -2.19944743889395       -0.33199521450423
H           -4.87578019298686        3.49333719114604       -0.08376433788548
H           -4.00310161421925        3.06190509784218        2.77080370042281
H           -5.21842118377288        2.05080496374595        1.96224188423653
H           -5.53399478202887        3.79583375507137        2.17844448965564
H           -2.61248214104268        4.78076471949847        1.41944244347179
H           -3.13680358413350        5.05568869945498       -0.27610130040215
H           -4.18477317200360        5.47836668118150        1.07164023864423
H           -0.83761970991915        2.81731132263292        2.90701157984128
