72
 energy: -5.627153670796 xtb: 6.6.1 (8d0f1dd)
N           -1.55440892832468        2.82975694531298        2.28393722492474
C           -1.62191837780274        2.15672252307268        1.22567909656851
C           -2.81446369537534        2.09060838285496        0.29872009032261
C           -3.37668726814502        0.66816234392108        0.36903409790935
C           -4.31599345402702        0.22870357373496       -0.56641930122064
C           -4.84756911690091       -1.04625644716848       -0.53425031768484
O           -5.79490681129827       -1.52950171143850       -1.39060290803160
C           -6.32447816875497       -0.65571281065823       -2.34914033778175
C           -4.43385968087776       -1.95000868469960        0.46349557796155
O           -5.02284590505839       -3.17883474179839        0.41626873608864
C           -4.72773884242078       -4.10154935901521        1.43179530323251
C           -3.48450438487179       -1.53250655574940        1.37538584438294
C           -2.96231795734876       -0.24381844699501        1.32351055649395
C           -2.20791139591201        2.29851959232657       -1.13328210391941
C           -1.26331001178243        1.18505277509923       -1.65719960682883
C            0.03543575533366        1.12001086393837       -0.92850949525827
N            0.65013063046118       -0.06669938229381       -0.56289551445006
C            2.02438798998062       -0.05743644075165       -0.17516556587450
C            2.96207133032678       -0.55046209055154       -1.30293144990861
C            4.38629905970247       -0.43974410349668       -0.86200574030619
C            5.10664906577148        0.72343593435620       -1.06533494631907
C            6.41548523488897        0.83814197367333       -0.61531316878411
C            7.02320335076092       -0.21092813629277        0.05113966210557
O            8.29983297005558       -0.21026818066729        0.52712087858214
C            9.09199064015931        0.92988312010147        0.31252877411035
C            6.29443923704540       -1.40150731241870        0.27128480112690
O            6.97327706905906       -2.38249683497060        0.93089341538911
C            6.33083231462942       -3.60996551768952        1.15255727379010
C            4.99186037660061       -1.49647005798676       -0.18133379660188
C           -0.01760201227920       -1.33643035443515       -0.64063870318080
C           -3.94871497064686        3.16777639790600        0.60475031590150
C           -4.58104720423658        2.86168223843801        1.95501386337882
C           -3.41830482134678        4.59811893009376        0.60065685678749
H           -4.62115128598211        0.90836523047097       -1.34283669712014
H           -6.77799037292055        0.22426149950829       -1.88160208622093
H           -7.08972936134641       -1.22836425112354       -2.87036547314427
H           -5.56284203128139       -0.32724345453293       -3.06298501132841
H           -4.97221599447959       -3.70476428469085        2.42271545062943
H           -5.35009707775540       -4.97214446651936        1.23020903662271
H           -3.67411539659779       -4.39970940576986        1.41398840828505
H           -3.15216186875163       -2.20423142853688        2.15025133833683
H           -2.23363715560886        0.04657654665645        2.05857122353281
H           -3.02897851424736        2.40286586728965       -1.84310393322557
H           -1.64724245819133        3.23436536301086       -1.14775904075567
H           -1.78046657692381        0.22953357309540       -1.61492545170990
H           -1.06061106766973        1.39888994407456       -2.72112927860287
H           -0.76621681038946        1.59316551056001        0.81938505858661
H            0.68989767396432        1.97254752057247       -1.02483636712509
H            2.15620056851713       -0.68928397946594        0.71342131456333
H            2.30766837291985        0.96178156058487        0.09248264106702
H            2.79324114039693        0.06145689422676       -2.19289162714783
H            2.71413414076778       -1.58512495733381       -1.54693142322214
H            4.65514715032141        1.55274092628282       -1.58916123466517
H            6.95575772161713        1.75526826029732       -0.79368383722557
H            8.66905160745644        1.81436205735156        0.80043387228894
H            9.22790373378125        1.13857976546212       -0.75564200496731
H           10.05769143649963        0.70114366524476        0.75853284664184
H            7.06112767841293       -4.23498509781169        1.66555714564019
H            5.44495435124798       -3.49421997715734        1.78754593673530
H            6.03985197445548       -4.09056463238946        0.21157879388607
H            4.42649410933040       -2.40154742991606       -0.02349556957398
H           -0.21697201122732       -1.63889443703034       -1.67786774966920
H           -0.96642909378354       -1.29897467083729       -0.10822494962139
H            0.60128463398369       -2.10400217633873       -0.17384548444160
H           -4.73336568875016        3.12509916708390       -0.16393333838282
H           -3.82264203270494        2.95547347068458        2.72973095143455
H           -4.98671788698334        1.85358867684800        1.97209135621104
H           -5.39113802429811        3.56479594776637        2.14478610446052
H           -2.60502433429818        4.70025165558132        1.31110132867825
H           -3.07366051132572        4.88868131810543       -0.38721919015404
H           -4.21624795211388        5.28062903927061        0.88809908694226
H           -0.67004097011915        2.78398076775139        2.78559415021845
