  25
        -42.12894824
 C          3.9618746942        0.9375943607        0.1396416697
 N          2.8469495729        0.0354676342        0.0318494006
 C          2.8787602140       -1.2813839592       -0.1398865724
 N          1.6381541883       -1.7664919835       -0.1917121473
 C          0.7415031989       -0.7309750806       -0.0208769155
 C          1.5032116920        0.4762722868        0.1192338077
 C         -1.3805211511        0.2469333758        0.4863095965
 O          1.1693478070        1.6368209459        0.2487490823
 N         -2.3321968030        0.8622556346       -0.4127085658
 C         -2.3705221303        2.0317215949       -1.2392497264
 C         -2.8984790864        0.1947486105        0.5584296877
 O         -3.8409661106       -0.2522246336        1.1063020715
 N         -0.6189901441       -0.8539224691       -0.0618894040
 C         -1.2475814201       -1.8883717693       -0.5693405822
 H          4.4575449404        0.8217406118        1.1045435486
 H          4.6805353302        0.7578656768       -0.6583393849
 H          3.5673648095        1.9511233672        0.0634893860
 H          3.7705284256       -1.8722775691       -0.2301951235
 H         -1.3740021988        2.4718916452       -1.2622329176
 H         -2.6695437835        1.7493371853       -2.2501575810
 H         -3.0831585280        2.7553666105       -0.8450612248
 H         -0.7998049764        0.8578407144        1.1620608835
 H         -0.7034568942       -2.6735989363       -1.0581370595
 H         -2.3165539884       -1.9534856504       -0.5091730780
 H          1.4029746278       -2.7444700773       -0.2762968701
