  25
        -42.08979308
 C          3.1729167623        1.0954469412        0.8906711915
 N          2.1197331194       -0.5962852155       -0.6565091571
 C          2.2867377400       -0.0928484010        0.7044571751
 N          1.3373186951       -1.8375572758       -0.6965692396
 C          0.3072984460       -1.2227849543       -0.1724030960
 C          0.9765938127        0.0893009560       -0.0015515144
 C          0.1550237812        1.3165414820       -0.2338740723
 O          0.5832294653        2.3941559829       -0.5353758986
 N         -1.1666023282        1.0202678335        0.0253861519
 C         -2.1060476547        2.1432908579        0.0343280755
 C         -1.7781378783       -0.2278665425        0.2214286703
 O         -2.9402881975       -0.3230679463        0.4643443559
 N         -0.9828900963       -1.3938860901        0.0369324005
 C         -1.6374397533       -2.6874942685       -0.0681770616
 H          3.0284603448        1.4986284477        1.8910854085
 H          4.2174388557        0.8000827710        0.8025527742
 H          2.9531454859        1.8796033401        0.1687146826
 H          2.3657711867       -0.8815829349        1.4502140418
 H         -1.5364075864        3.0659391693       -0.0346741194
 H         -2.7888198299        2.0654552353       -0.8106644502
 H         -2.6850546017        2.1221963115        0.9556513845
 H         -1.5597830331       -3.2215566664        0.8785850356
 H         -1.1524723658       -3.2655103287       -0.8522260883
 H         -2.6887963275       -2.5284813300       -0.2996185155
 H          2.6828105355       -0.3247621378       -1.4684710050
