25
 energy: -42.087520680080 gnorm: 0.001879171021 xtb: 6.6.1 (8d0f1dd)
C            3.31470973536996        1.13461456408130        0.00898539383433
N            2.35553556371414        0.06189575959652       -0.00061810989329
C            2.67483325304315       -1.23043156550276       -0.00248518797165
N            1.55924874825153       -1.97468938610844        0.00971015396544
C            0.44231191839314       -1.12738025079747        0.02016937644189
C            0.99153706636162        0.18518035806290        0.01320534273359
C            0.25399469261758        1.45386887055120        0.00300941211700
O            0.84043750706777        2.54453608281453       -0.06398840360445
N           -1.05900351874400        1.30153365625186        0.06894133136944
C           -1.98679933182435        2.34320633265755        0.07846191898521
C           -4.37508537226157        0.14913917115172       -0.37437347971916
O           -4.30320177634431       -0.96543602502178       -0.22811751488315
N           -0.79652533063458       -1.45898097018820        0.03265755794651
C           -1.33868555134116       -2.75887250088899        0.04176282396731
H            3.83899969044074        1.16322623524163        0.96595460305710
H            4.04379858180505        0.99539217049874       -0.78928893802956
H            2.78750905856127        2.08054262708279       -0.13285861871306
H            3.67696384552714       -1.61500234533130       -0.00890440033101
H           -1.51453924551001        3.32795878054133       -0.05386011726087
H           -2.72398216007704        2.17648571800520       -0.71747835981233
H           -2.53685372608894        2.33238639523328        1.02727165887284
H           -1.01618158720173       -3.33570826208308        0.91720483002396
H           -1.07818590824457       -3.31904586757653       -0.86469250730748
H           -2.42479812051000       -2.66292650669673        0.07969830860549
H            1.53439348172915       -2.98325449997501        0.00080454350571
