  72
        -99.35034096
 N         -1.7142455178        2.5652832281        2.5385119913
 C         -1.6683068750        2.0506085102        1.3989516615
 C         -2.8360244372        1.9984185667        0.4481925598
 C         -3.4139465278        0.5990911014        0.4344965635
 C         -4.3690060967        0.2404853385       -0.4754253170
 C         -4.9464872157       -1.0368782323       -0.5047630991
 O         -5.8987239780       -1.4342506294       -1.3524877460
 C         -6.4720385333       -0.5159402445       -2.2558588540
 C         -4.5070161655       -2.0407206487        0.4327245496
 O         -5.1056898300       -3.2385262990        0.2729104454
 C         -4.7788819267       -4.2844229980        1.1590827472
 C         -3.5721477831       -1.7249171212        1.3621043801
 C         -2.9666466622       -0.3717831162        1.4702278114
 C         -2.2884889466        2.3812956305       -0.9559286020
 C         -1.4798423172        1.2849375093       -1.6685205866
 C         -0.1083923932        1.1039851037       -1.1204995827
 N          0.4829964462       -0.0675572843       -0.9170273184
 C          1.8643968777       -0.0396456831       -0.4424322006
 C          2.8486073081       -0.2487309886       -1.6035703128
 C          4.2607409460       -0.1643617707       -1.0941913966
 C          4.9659877984        1.0260481530       -1.1542002329
 C          6.2547742578        1.1132487236       -0.6510831280
 C          6.8625992961        0.0095535402       -0.0701398789
 O          8.1035494192       -0.0185854270        0.4504301808
 C          8.9118505317        1.1325011929        0.3620757936
 C          6.1450839372       -1.2167454571       -0.0007859054
 O          6.8081717076       -2.2382071521        0.5772029751
 C          6.1859739496       -3.4970838597        0.6738363663
 C          4.8588870676       -1.2798735210       -0.5126630560
 C         -0.0344993418       -1.2709845943       -1.1246592591
 C         -3.9822104117        2.9913208287        0.8362869041
 C         -4.6798095042        2.5812367678        2.1311865877
 C         -3.5030383764        4.4356815424        0.9462273058
 H         -4.6965954259        0.9633048943       -1.2054894635
 H         -6.9058155881        0.3408766538       -1.7327854213
 H         -7.2611799387       -1.0641043737       -2.7667670960
 H         -5.7409597098       -0.1672841620       -2.9915468449
 H         -5.0255465086       -4.0238185329        2.1923582364
 H         -5.3841797382       -5.1324110822        0.8450979344
 H         -3.7192982002       -4.5492425879        1.0912829160
 H         -3.2358840603       -2.4500578760        2.0846641614
 H         -3.1853318167        0.0446922706        2.4647610736
 H         -3.1307646739        2.6478298453       -1.5938299791
 H         -1.6642690084        3.2696331654       -0.8520254101
 H         -2.0367549772        0.3497845352       -1.6367781384
 H         -1.3961759048        1.5828580476       -2.7215270067
 H         -0.7595293684        1.5982834279        0.9658345716
 H          0.5009036180        1.9845577591       -0.9994900989
 H          2.0028845108       -0.8289661887        0.2996099243
 H          2.0693400582        0.9207921345        0.0340775364
 H          2.6780329092        0.5200600719       -2.3591499594
 H          2.6660010268       -1.2234396025       -2.0587928741
 H          4.5176574931        1.8976685941       -1.6061460215
 H          6.7801656642        2.0516723703       -0.7171724039
 H          8.4934216292        1.9613511428        0.9416455650
 H          9.0499453140        1.4455615427       -0.6771873212
 H          9.8736022295        0.8475185648        0.7845065363
 H          6.9106025500       -4.1443529736        1.1642453021
 H          5.2757930939       -3.4497328139        1.2806396156
 H          5.9476576433       -3.9040344505       -0.3137600670
 H          4.3103758261       -2.2080405880       -0.4771740085
 H         -1.0008156710       -1.3976722016       -1.5676513207
 H         -1.8714161084       -0.4685012091        1.4510700087
 H          0.5331693158       -2.1366536472       -0.8517906086
 H         -4.7192532937        2.9398183226        0.0270276491
 H         -3.9694710449        2.5763225493        2.9514266234
 H         -5.1367690413        1.5988201182        2.0405783962
 H         -5.4636609535        3.2979008522        2.3610420384
 H         -2.7637990594        4.5305786807        1.7355729524
 H         -3.0793229521        4.7952209645        0.0125317450
 H         -4.3480626501        5.0726226040        1.1948736067
 H         -0.8576789846        2.5618821964        3.0839161935
