25
 energy: 38.858760719246 xtb: 6.6.1 (8d0f1dd)
C            3.19188756778820        1.15552503216090        0.15506373643813
N            2.25302616775583        0.09312760122814        0.06066296841244
C            2.57606052606855       -1.26040766164896        0.07149556505539
N            1.40025694871466       -1.96252817303368       -0.02798800380364
C            0.38506352686605       -1.07130733045030       -0.04527826434209
C            0.85242852708223        0.25971713933108       -0.01270681408824
C            0.00518027749082        1.45751172320166       -0.07187183811845
O            0.12728111950077        2.73360220943245       -0.04965464459562
N           -1.34816802084688        1.04416367064740       -0.14438966694692
C           -2.18066904167679        2.30677195061322       -0.09352031250483
C           -1.85596823892489       -0.25831839689160       -0.07988202858117
O           -3.04020750297664       -0.51479699118504       -0.01286878462967
N           -0.94587555997915       -1.35996753586555       -0.06579172357495
C           -1.41642788730521       -2.73381605513693       -0.10298458796507
H            3.53677709583742        1.29125439633179        1.18901787669162
H            4.06006674964097        0.97234896716567       -0.48946719650944
H            2.66254944947672        2.04133099414516       -0.18680973111487
H            3.55099454679014       -1.69959855331022       -0.00314139925592
H           -1.89908167182197        3.49395192933200       -0.68174417032843
H           -3.15262508820031        1.95453825192502       -0.40219534029805
H           -2.12525464162202        2.75704853535334        0.88866136741082
H           -1.06069320889479       -3.31443852162577        0.75530252954723
H           -1.08977223108564       -3.23739514032946       -1.01912118964784
H           -2.50489302018931       -2.72451685804142       -0.07953002093036
H            1.36960440776244       -2.97126256265408       -0.08166054786432
