25
 energy: 99.007398020986 xtb: 6.6.1 (8d0f1dd)
C            3.18379503985352        1.14877671107141        0.16552635494169
N            2.24970054889015        0.08763482926783        0.05932436836955
C            2.58155798535142       -1.26399061089049        0.06302292164519
N            1.41182837806417       -1.97329720284536       -0.02269291979924
C            0.39214357885519       -1.08173309976464       -0.03406549615504
C            0.85500222719178        0.26406341551836        0.00836172921303
C           -0.00328849381814        1.47205570778702       -0.03626932679992
O            0.02717480533780        2.77359664495519       -0.04883940426826
N           -1.35691808620293        0.99620901010264       -0.08237844796201
C           -2.20056149494606        2.14768129562766        0.02845222222129
C           -1.84708934814662       -0.31437816092616       -0.06456171024101
O           -3.03225196222963       -0.56533292919566       -0.01522498382122
N           -0.93424097123381       -1.38982149375359       -0.08075888318979
C           -1.39809461081503       -2.76611909994614       -0.11491785642803
H            3.49408799451130        1.30577212809772        1.20426955792647
H            4.06922539242308        0.95625086243851       -0.44839137232400
H            2.66437198991649        2.02564390555092       -0.20763363108310
H            3.55937602138697       -1.68451790421076        0.00573836499395
H           -1.98505510987854        3.99139939978284       -0.70033695641902
H           -3.21127589176780        1.91769818886380       -0.21449939251858
H           -1.90429292892024        2.84387860697269        0.79400282457056
H           -1.03318306566200       -3.35143187332967        0.73512878325925
H           -1.07773087814706       -3.25913231703860       -1.03803210319438
H           -2.48767674194484       -2.76431384685875       -0.08035713918722
H            1.37483541249202       -2.98263651384802       -0.07156551788560
