25
 energy: 136.425061003437 xtb: 6.6.1 (8d0f1dd)
C            3.16622664546432        1.10769342623921        0.17845026493462
N            2.26620825641989       -0.00954122830772        0.06116180136554
C            2.58888698349814       -1.30970122765474        0.01963277064824
N            1.46899049018738       -2.05619026510778       -0.03927402657390
C            0.40400787268980       -1.21708874800248       -0.01716682250032
C            0.87555150574584        0.11122815042577        0.05040278838021
C            0.09789936789087        1.26897623138142        0.08895664842843
O           -0.87675614162149        3.93254558854083       -0.16723528476778
N           -1.28027688830696        0.89867072685749        0.07653366516680
C           -2.16813064231909        1.86333312054971        0.24318129944256
C           -1.81869692951163       -0.45250659203406       -0.00787278248028
O           -3.01327062377515       -0.65470513927268       -0.03051110889583
N           -0.91920600275948       -1.49903081967025       -0.05024507598584
C           -1.39205642353141       -2.85555889833200       -0.12938695068362
H            3.45677759456762        1.29525847805895        1.22069484701735
H            4.06862202862320        0.93071953922085       -0.39778286381823
H            2.64926861015731        1.99768940419273       -0.17941468702099
H            3.58625663170981       -1.69529289212525        0.00706448762146
H           -1.39241127493271        4.78975879545289       -0.36026693372178
H           -3.20992739253369        1.72164063196066        0.14957195793223
H           -1.70997034963255        2.88446163389940        0.03953153804453
H           -1.01212045017689       -3.43624318013518        0.71120995456441
H           -1.07861733757778       -3.32535089052378       -1.06336709168962
H           -2.47744859743829       -2.84073427632857       -0.08889313199727
H            1.45469573609815       -3.06132098216514       -0.08738880078683
