25
 energy: 0.000000000000 xtb: 6.6.1 (8d0f1dd)
C            3.23720163006194        1.16630919979326        0.08434469647475
N            2.29877817382611        0.07527477071623        0.03981603040599
C            2.58028210190900       -1.21425402444508        0.03006176031096
N            1.43813958087363       -1.93419271955128        0.00098261760884
C            0.39035688448383       -1.05887472636071       -0.00790371836672
C            0.93510056364412        0.21347819449412        0.01709077491437
C            0.09450143893243        1.40504303904423       -0.00410947031874
O            0.49712751527797        2.54126714362870       -0.00342325688240
N           -1.25076640035757        1.06271879480407       -0.03085478223738
C           -2.21907211982101        2.15522099834493       -0.05001256985998
C           -1.81739487048744       -0.20012725993278       -0.04692818574614
O           -2.99983886758376       -0.37846417018721       -0.07008878229737
N           -0.92618586207120       -1.30210215599479       -0.03682761578324
C           -1.46982264913417       -2.64643102187190       -0.06029820460571
H            3.71247264356769        1.21471455160235        1.06488849150277
H            4.00791497605742        1.03430808813993       -0.67357694370751
H            2.69910007168542        2.09770118228144       -0.09130154882931
H            3.56654120610678       -1.63682992603973        0.04233140067262
H           -1.67107961066214        3.09322851271934       -0.02552706933167
H           -2.82428953597071        2.09428624779827       -0.95318082946668
H           -2.87644029173232        2.07745725625962        0.81450067533302
H           -1.17061996399332       -3.19584890659852        0.83242232437030
H           -1.14560257411436       -3.17511610292205       -0.95688275822323
H           -2.55549792440841       -2.55659984320617       -0.07459039797972
H            1.38130855184625       -2.94313852034425       -0.01389874181052
25
 energy: -3.060389071248 xtb: 6.6.1 (8d0f1dd)
C            3.24026689787487        1.18186047349743        0.08621755029047
N            2.30426255799326        0.08802984143881        0.03798463542571
C            2.58485590590416       -1.25103689763525        0.03023933126465
N            1.41149977279847       -1.98551617805722        0.00005177892726
C            0.39969425125710       -1.06364350319339       -0.00838721122961
C            0.93010445360733        0.22145724140222        0.01542373779451
C            0.10198652779631        1.40446909756537       -0.00444051022915
O            0.49558423305718        2.57215687996170       -0.00260138742355
N           -1.26056205234711        1.06253515832360       -0.03120879621771
C           -2.22788094734551        2.15536337975318       -0.05020993116729
C           -1.81856112688603       -0.19069592770113       -0.04780500875824
O           -3.01442238474577       -0.37534184009046       -0.07134654221147
N           -0.92916582694506       -1.29132533651536       -0.03713317219030
C           -1.45040870872979       -2.63505796166164       -0.05955041518354
H            3.72477602283051        1.23789090437123        1.06529892252098
H            4.01063213042800        1.05955378117282       -0.67683998569040
H            2.70298864189292        2.11529282924577       -0.08580445835166
H            3.56827492601898       -1.65908730916504        0.04392398687675
H           -1.67774255463772        3.09353635964120       -0.02586239307717
H           -2.83509199815482        2.09828347487894       -0.95346552313457
H           -2.88724438780728        2.08145815867468        0.81427505985632
H           -1.13037135824806       -3.17614513265593        0.83294049348017
H           -1.10535380029849       -3.15644034292646       -0.95452067658810
H           -2.53556868470094       -2.55806285112109       -0.07405947178961
H            1.30966217732370       -3.04050569703198       -0.01608611704716
25
 energy: 1.311949262383 xtb: 6.6.1 (8d0f1dd)
C            3.24212145930580        1.18679390528132        0.08726431384466
N            2.30766206231980        0.08925526901130        0.03527274837109
C            2.57998548021911       -1.28350650074756        0.03120214436642
N            1.38165611654775       -2.02761198340284       -0.00030856155030
C            0.40644081957632       -1.06523407473228       -0.00898313502520
C            0.92634068330870        0.22460920273059        0.01352753155818
C            0.10857014755896        1.39750436520550       -0.00452387060441
O            0.48471766107378        2.57859601425532       -0.00106564603453
N           -1.27128895491909        1.06739599206797       -0.03174768701890
C           -2.23626491403030        2.16110504482692       -0.05055619141029
C           -1.81684627454497       -0.17820928230129       -0.04883687723693
O           -3.01623088551774       -0.37271095863764       -0.07319801365646
N           -0.93124834429980       -1.27291102262994       -0.03750140285838
C           -1.42323642746341       -2.62125120146501       -0.05856176182757
H            3.73606063678985        1.25468305063516        1.06330386966180
H            4.01222087666808        1.08478889573117       -0.68147218008548
H            2.70166567260161        2.12186478088678       -0.07792776248172
H            3.56474824100117       -1.67372960740523        0.04656094248752
H           -1.68615105376327        3.09994666835322       -0.02631858464645
H           -2.84599134375363        2.10495953938492       -0.95303657567506
H           -2.89792659953654        2.08811214443452        0.81310645544762
H           -1.08047225307350       -3.15177114329756        0.83398641979959
H           -1.05533976370213       -3.13367139418178       -0.95172357729921
H           -2.50864502540158       -2.56951521896106       -0.07350409145386
H            1.22966665097120       -3.12046388287045       -0.01792461052487
25
 energy: 3.815527829851 xtb: 6.6.1 (8d0f1dd)
C            3.24186313636654        1.18560538559527        0.08728624446134
N            2.30885716527741        0.08659092536122        0.03378654056853
C            2.57525258760198       -1.29407221223866        0.03216049754768
N            1.37019851264723       -2.03999789213389       -0.00006214232627
C            0.40752045284774       -1.06647554479797       -0.00929535868707
C            0.92572003531026        0.22360958071410        0.01271529621796
C            0.11103767862207        1.39575851751082       -0.00432036138743
O            0.47888351761791        2.57711714494716       -0.00002009331325
N           -1.27578580690728        1.07266636076177       -0.03215065025988
C           -2.23898872440774        2.16660726000594       -0.05085601240787
C           -1.81755742103451       -0.17333234810467       -0.04953004892563
O           -3.01619493683011       -0.37343225187546       -0.07453622490292
N           -0.93239174532788       -1.26401034537718       -0.03773290502417
C           -1.41036181853358       -2.61664480536476       -0.05796700497286
H            3.73955817699736        1.25539432256715        1.06143137451441
H            4.01034511425957        1.09333220258876       -0.68457656367110
H            2.69789310266340        2.12051487702447       -0.07314193512803
H            3.56340183641618       -1.67605281610875        0.04812005198985
H           -1.68962509063041        3.10562827494699       -0.02663783286004
H           -2.84934091114325        2.10973637881707       -0.95303289729652
H           -2.90110115877611        2.09291143003123        0.81258325865477
H           -1.05812696084780       -3.14013236648748        0.83533954216157
H           -1.03275249988932       -3.12311116560436       -0.95075608991529
H           -2.49585894084452       -2.58119211654889       -0.07324678455421
H            1.19976936648107       -3.14799019405788       -0.01852600433631
25
 energy: 4.396936079623 xtb: 6.6.1 (8d0f1dd)
C            3.24153260900746        1.18468573713408        0.08723808997932
N            2.30944772447551        0.08524119371207        0.03308064898310
C            2.57358659401573       -1.29510033028776        0.03295732986504
N            1.36865440016214       -2.04104892096369        0.00025462113296
C            0.40739462777356       -1.06766417959625       -0.00949112866323
C            0.92600690651549        0.22230016225649        0.01225996337636
C            0.11206698403678        1.39582583263775       -0.00433315955749
O            0.47703086250419        2.57589455628571        0.00051236717207
N           -1.27668756741325        1.07464283171440       -0.03241170200810
C           -2.23918146135445        2.16845841956424       -0.05099432435574
C           -1.81857097335339       -0.17266786289005       -0.04984883310092
O           -3.01640000819386       -0.37442195287575       -0.07508145287310
N           -0.93303452112964       -1.26152749324354       -0.03785983790348
C           -1.40779983667810       -2.61594962866687       -0.05773894738864
H            3.74045370727343        1.25325171652152        1.06058719459470
H            4.00878166199342        1.09497246213643       -0.68586113203711
H            2.69623156786207        2.11930232172612       -0.07112015254156
H            3.56367246887497       -1.67359892172139        0.04862904207596
H           -1.69022711977287        3.10751366688995       -0.02680438903009
H           -2.84962635652197        2.11151888691894       -0.95313571816035
H           -2.90123204952607        2.09473394184551        0.81254042031392
H           -1.05395333844144       -3.13680970842515        0.83602252037748
H           -1.02842864230639       -3.12022850544032       -0.95059063433095
H           -2.49296312680272       -2.58579851078253       -0.07315530934814
H            1.19545955493555       -3.15449711227789       -0.01862158042473
25
 energy: 4.580825070342 xtb: 6.6.1 (8d0f1dd)
C            3.24137280214205        1.18413810634767        0.08722286763373
N            2.30984287156608        0.08447646186041        0.03248984997973
C            2.57280789404409       -1.29455939308334        0.03394563631336
N            1.36918797800066       -2.04007595912892        0.00061240210429
C            0.40711617585407       -1.06853811815448       -0.00970488828765
C            0.92620024013920        0.22144193838105        0.01180250505614
C            0.11287245593186        1.39606520967798       -0.00445261421315
O            0.47630604808974        2.57548703812252        0.00089272568117
N           -1.27675050116853        1.07522788008517       -0.03263392644428
C           -2.23896153639508        2.16884716318985       -0.05107176802563
C           -1.81937155384461       -0.17278826181790       -0.05001802462663
O           -3.01669655777372       -0.37488152039401       -0.07530717243502
N           -0.93355834035142       -1.26055421798611       -0.03796584382653
C           -1.40777228750457       -2.61591411027777       -0.05764442023966
H            3.74095177229241        1.25154242896244        1.06015980836799
H            4.00790052240353        1.09539984218175       -0.68653016520707
H            2.69568709449947        2.11863429612546       -0.06994947803298
H            3.56403984694839       -1.67094344717710        0.04858059566276
H           -1.69032057539519        3.10802313373190       -0.02690759112061
H           -2.84950868058319        2.11213213452574       -0.95319433363316
H           -2.90094076162806        2.09536384181621        0.81258885082805
H           -1.05375004300992       -3.13568639623622        0.83632553324992
H           -1.02814934187165       -3.11933564301847       -0.95053627482693
H           -2.49269599147907       -2.58749050380875       -0.07312261312783
H            1.19640513702966       -3.15698330175308       -0.01854776468272
25
 energy: 4.607049163057 xtb: 6.6.1 (8d0f1dd)
C            3.24139213924411        1.18402314358955        0.08725271718066
N            2.31003130976542        0.08427798421741        0.03205593168269
C            2.57259141453179       -1.29402736478539        0.03521990904193
N            1.37014527031397       -2.03883731015445        0.00093187820070
C            0.40690902791775       -1.06881553783796       -0.00991242008610
C            0.92611863570360        0.22143316115071        0.01142916914876
C            0.11340107370711        1.39625422916504       -0.00458900055378
O            0.47633449337087        2.57586658512292        0.00105833767957
N           -1.27658097508241        1.07494956196662       -0.03278486606755
C           -2.23877202398437        2.16845577358661       -0.05109885377980
C           -1.81967638644693       -0.17303443264608       -0.05004677763811
O           -3.01692247882186       -0.37476414905238       -0.07525016570912
N           -0.93382328071629       -1.26048262263991       -0.03803949195145
C           -1.40856714743772       -2.61607126117118       -0.05765258354695
H            3.74109615542006        1.25096616268584        1.06016031239108
H            4.00783717015675        1.09537575434000       -0.68663585195597
H            2.69581648748486        2.11853640409375       -0.06960486743242
H            3.56417313656948       -1.66971730162245        0.04778191859826
H           -1.69027143970471        3.10777595476195       -0.02694233459800
H           -2.84942973140640        2.11195584229636       -0.95319371888042
H           -2.90073099213156        2.09516814395383        0.81263437851389
H           -1.05476486798315       -3.13586956739110        0.83631178374512
H           -1.02915660745219       -3.11958062872208       -0.95051981713432
H           -2.49346948481673       -2.58709649915186       -0.07313178260283
H            1.19853376973475       -3.15771342358371       -0.01839990809857
25
 energy: 4.611395956129 xtb: 6.6.1 (8d0f1dd)
C            3.24145445254908        1.18413221403107        0.08731169317408
N            2.31005524702045        0.08436651459783        0.03197089570621
C            2.57260831729199       -1.29416289065007        0.03636771667471
N            1.37032661664216       -2.03855069223562        0.00106104349454
C            0.40690361242552       -1.06864724314894       -0.01003049414478
C            0.92598034400458        0.22183639831752        0.01132713268175
C            0.11349731151248        1.39628649738050       -0.00464798173899
O            0.47650569492321        2.57620607509351        0.00098839544941
N           -1.27660406935022        1.07471023403052       -0.03283101824511
C           -2.23882141039199        2.16825427781409       -0.05109948623170
C           -1.81953241005185       -0.17302988923693       -0.05001610016961
O           -3.01689669799098       -0.37457411552005       -0.07511336149118
N           -0.93377555279699       -1.26071927662282       -0.03807886682949
C           -1.40877250797494       -2.61612872754197       -0.05768788868139
H            3.74096757517194        1.25129713660487        1.06034252365105
H            4.00812989256574        1.09535143299413       -0.68640933143882
H            2.69594061173749        2.11865249285640       -0.06979455042137
H            3.56408366916343       -1.67011489023270        0.04660669064714
H           -1.69024590410355        3.10756585891721       -0.02693464451629
H           -2.84950614780072        2.11176810587339       -0.95318052721691
H           -2.90078732284597        2.09495057489853        0.81263074606856
H           -1.05503949575355       -3.13619697970710        0.83622755566667
H           -1.02944867037267       -3.11989882987257       -0.95052289916507
H           -2.49374373481810       -2.58648317195993       -0.07314645513437
H            1.19893524717967       -3.15784250450886       -0.01830689164177
