25
 energy: 0.000000000000 xtb: 6.6.1 (8d0f1dd)
C            3.23720163006194        1.16630919979326        0.08434469647475
N            2.29877817382611        0.07527477071623        0.03981603040599
C            2.58028210190900       -1.21425402444508        0.03006176031096
N            1.43813958087363       -1.93419271955128        0.00098261760884
C            0.39035688448383       -1.05887472636071       -0.00790371836672
C            0.93510056364412        0.21347819449412        0.01709077491437
C            0.09450143893243        1.40504303904423       -0.00410947031874
O            0.49712751527797        2.54126714362870       -0.00342325688240
N           -1.25076640035757        1.06271879480407       -0.03085478223738
C           -2.21907211982101        2.15522099834493       -0.05001256985998
C           -1.81739487048744       -0.20012725993278       -0.04692818574614
O           -2.99983886758376       -0.37846417018721       -0.07008878229737
N           -0.92618586207120       -1.30210215599479       -0.03682761578324
C           -1.46982264913417       -2.64643102187190       -0.06029820460571
H            3.71247264356769        1.21471455160235        1.06488849150277
H            4.00791497605742        1.03430808813993       -0.67357694370751
H            2.69910007168542        2.09770118228144       -0.09130154882931
H            3.56654120610678       -1.63682992603973        0.04233140067262
H           -1.67107961066214        3.09322851271934       -0.02552706933167
H           -2.82428953597071        2.09428624779827       -0.95318082946668
H           -2.87644029173232        2.07745725625962        0.81450067533302
H           -1.17061996399332       -3.19584890659852        0.83242232437030
H           -1.14560257411436       -3.17511610292205       -0.95688275822323
H           -2.55549792440841       -2.55659984320617       -0.07459039797972
H            1.38130855184625       -2.94313852034425       -0.01389874181052
25
 energy: -3.637692197373 xtb: 6.6.1 (8d0f1dd)
C            3.24959937083159        1.19218360330046        0.09320365953854
N            2.31865702250857        0.10418297267516        0.04286660061403
C            2.61854506336881       -1.22054526612302        0.03464962128728
N            1.45103308625930       -1.93765275651567        0.00303075790286
C            0.40752673106401       -1.06408486579223       -0.01026325893003
C            0.93956990365004        0.21927213333923        0.01728293273987
C            0.11116138729198        1.39226959789909       -0.00461647691777
O            0.50609834302735        2.55852902010917       -0.00285867708913
N           -1.24899025561566        1.04540435952978       -0.03482154409722
C           -2.21278565937748        2.13718079023509       -0.06203173934870
C           -1.81159020357075       -0.20478188837586       -0.04640581052705
O           -3.00747555364726       -0.38761748043519       -0.07425621718818
N           -0.93114087630394       -1.30816736778412       -0.03397165596211
C           -1.52941660999972       -2.63184928091351       -0.05052971018334
H            3.74629582812205        1.22702331826689        1.06669879159052
H            4.00646154046070        1.07600030586210       -0.68423856463084
H            2.69683356595965        2.11755661442537       -0.05821254441451
H            3.60158055483365       -1.63617198082697        0.05278580069049
H           -1.65652554909413        3.07127487123116       -0.03693011838367
H           -2.81256130017969        2.07674382978796       -0.96967536265395
H           -2.87437637937874        2.06400369014596        0.80033559448790
H           -1.12662338390572       -3.23758132867783        0.76445209947234
H           -1.28251106210308       -3.14812766618974       -0.95411731190010
H           -2.64512899992897       -2.57431045646616       -0.01684517772274
H            1.39797810366364       -2.94170616653508       -0.00849779222720
25
 energy: 1.599315139549 xtb: 6.6.1 (8d0f1dd)
C            3.26320433333382        1.22462410886171        0.10709432301384
N            2.34049736204337        0.13653885527112        0.04922234065922
C            2.66410801300110       -1.21948469273732        0.04511374622497
N            1.47560122355776       -1.93541422145013        0.00901653465521
C            0.42999896248315       -1.07758911506007       -0.01001142046261
C            0.94394572030538        0.22160010323196        0.01847263709365
C            0.13566114212901        1.36921836435215       -0.00546700506477
O            0.50969607376057        2.55963406467631       -0.00085092603921
N           -1.24424520821253        1.02350210851219       -0.04338709268913
C           -2.20127792237576        2.11405940539351       -0.08388707451849
C           -1.79375514795494       -0.21297414096184       -0.04950538972917
O           -2.99797955136139       -0.39930302142834       -0.08433454048436
N           -0.93402243395326       -1.32127749054389       -0.02619939524642
C           -1.61126739203400       -2.61633419284121       -0.03385948499362
H            3.80058723691010        1.23904360462142        1.06414479704749
H            3.99764605603999        1.14636278724043       -0.70236697196446
H            2.69330259168675        2.14745834606527        0.00224873702158
H            3.64692457563783       -1.61968080608575        0.07275653497936
H           -1.63685782421760        3.04386014298132       -0.05714950919553
H           -2.79185857884394        2.05016641729190       -0.99802968352357
H           -2.87125901306649        2.04424756310475        0.77276271460803
H           -1.05541092111660       -3.30883987816254        0.65454813092262
H           -1.53069330859295       -3.10326164743363       -0.98471342025181
H           -2.76171281583734       -2.57991859949695        0.11006001719590
H            1.44138149461415       -2.93720946323031        0.00135529688855
25
 energy: 10.592313110660 xtb: 6.6.1 (8d0f1dd)
C            3.27176245728735        1.25189652935996        0.11851690316763
N            2.35804047393578        0.15678098763521        0.05631395575084
C            2.69997143814723       -1.21246783841764        0.05557811443198
N            1.50732367391239       -1.93276597919645        0.01824021185201
C            0.45048169121526       -1.09660324516200       -0.00323939006362
C            0.95109561835016        0.21651671951111        0.02202514598605
C            0.15591256193609        1.35377945037191       -0.00525977569291
O            0.51121687927374        2.55436485662975        0.00204850537263
N           -1.23654157111753        1.00856986783096       -0.05282067382715
C           -2.19039864235226        2.09512324074984       -0.10659796409690
C           -1.77398762793434       -0.22412896436507       -0.05602246138441
O           -2.98218455630891       -0.41026000771646       -0.09837574637596
N           -0.93057804785262       -1.34087146227857       -0.01416043827442
C           -1.67596536701785       -2.61102690567462       -0.01426507678283
H            3.85227557557919        1.24364561722549        1.05444351535686
H            3.98015592562272        1.21909254858644       -0.72341279645849
H            2.68852041161995        2.17487188293596        0.06753750110179
H            3.68813338263837       -1.59529745888389        0.09177181573898
H           -1.62232537381653        3.02225954581660       -0.07750060438757
H           -2.77106344837200        2.02453793724557       -1.02687446430194
H           -2.86853486752582        2.02508525128571        0.74367424665661
H           -1.01148850340919       -3.37493888053814        0.53484891622056
H           -1.79258232678156       -3.04576651774523       -1.01666889865074
H           -2.84669482758190       -2.57756526194507        0.24495994756793
H            1.49966973848841       -2.93580331108931        0.01227340724037
25
 energy: 16.726138900564 xtb: 6.6.1 (8d0f1dd)
C            3.27537106453888        1.26987715723162        0.12304045255210
N            2.36964580925998        0.16383199773967        0.06121787905129
C            2.72169461670065       -1.20176447652944        0.06137014618824
N            1.53828954995258       -1.92977785965888        0.02853029116168
C            0.46411720001191       -1.11595663553994        0.01045666858876
C            0.95931027116607        0.20605621968470        0.02759888764262
C            0.16953898169938        1.34641797664862       -0.00328610068766
O            0.51216418596450        2.54355584891297        0.00697894491095
N           -1.22713918026695        1.00043487347064       -0.05982163732845
C           -2.18121946151595        2.08182814261746       -0.12245796404851
C           -1.75726062458767       -0.23556697570953       -0.06580227599554
O           -2.96494481327167       -0.41774298938883       -0.11616680462697
N           -0.92612352260146       -1.36195471123732       -0.00128880739371
C           -1.72064419179525       -2.61321076589419        0.00155292686166
H            3.89540793477741        1.24048446670810        1.03486111312503
H            3.95564001620281        1.28106706389484       -0.74652788642272
H            2.68464176268159        2.19288807837530        0.12408630911793
H            3.71807589604855       -1.56882293537335        0.10200583464852
H           -1.61346881294672        3.00815512899322       -0.09044996215852
H           -2.75425105783359        2.00491031753982       -1.04677036161904
H           -2.86514343275923        2.00884789101075        0.72268555225703
H           -1.02776427053243       -3.41076398413710        0.42580384402857
H           -1.97672350370636       -2.98031284271536       -0.99787255964711
H           -2.89633176644575       -2.58786339168388        0.32725269836765
H            1.55933201719482       -2.93558899278779        0.02003670757341
25
 energy: 18.639872979743 xtb: 6.6.1 (8d0f1dd)
C            3.27354793040205        1.27381493485336        0.12284187223294
N            2.37310265457482        0.15747300019675        0.06462279557835
C            2.72365288852578       -1.18919627502733        0.06577994439529
N            1.55999784388706       -1.92643855494345        0.03989622463695
C            0.46780166792414       -1.12883633801120        0.02692627711909
C            0.96618749065925        0.19493285746876        0.03289826533579
C            0.17429192501532        1.34813698135142       -0.00200334671174
O            0.51298954490282        2.53243254616642        0.00985743855980
N           -1.21738455530188        0.99832691269247       -0.06294833082979
C           -2.17564036808921        2.07525526533467       -0.13420238539833
C           -1.74762993847888       -0.24576987837617       -0.06977279285504
O           -2.95141552607087       -0.42242023268369       -0.13550471112464
N           -0.92160859976808       -1.37837142435253        0.01378454358928
C           -1.73191014646381       -2.62375608218101        0.01243976232837
H            3.91549561125551        1.23044676367284        1.01235369831041
H            3.92878726523990        1.31191969416491       -0.75830732367814
H            2.68527226657866        2.19295883563172        0.15694429371886
H            3.72739357710345       -1.54706587936163        0.11055121630616
H           -1.61281422874309        3.00375143552890       -0.10114218154741
H           -2.74420039838768        1.99356414531736       -1.06027750194376
H           -2.86336714373005        2.00146348160848        0.70750635257788
H           -1.04404915017893       -3.43276105479451        0.31315739295398
H           -2.09263714533123       -2.88408185403308       -0.96540784983333
H           -2.89811799217169       -2.61261479055249        0.39807047341523
H            1.60446919458273       -2.93413588749889        0.02896976901105
25
 energy: 20.568341347459 xtb: 6.6.1 (8d0f1dd)
C            3.27081259065380        1.27012959239016        0.12170884387817
N            2.37253592111953        0.15003183321679        0.06920906998366
C            2.71728424156361       -1.18016075984136        0.07397778759422
N            1.56862499285094       -1.92490856426119        0.05713131626295
C            0.46810005473011       -1.13100622402769        0.04724528217850
C            0.96940483644732        0.19124461245966        0.03957520723160
C            0.17402872098192        1.35132255739058       -0.00217212905705
O            0.51507462992932        2.52992370094680        0.00593853305404
N           -1.21028978642182        0.99620034637097       -0.06423007959443
C           -2.17359752732537        2.07142662169117       -0.14942941151725
C           -1.74296434740930       -0.25283615756805       -0.06281868614787
O           -2.94337790223270       -0.42971526157531       -0.14900120209898
N           -0.91499631526473       -1.38326044270998        0.04148316781459
C           -1.72103682741485       -2.63056577273970        0.02194063007272
H            3.92261782857224        1.21537629527305        0.99682801738521
H            3.90504614012979        1.31595937785954       -0.76654708457002
H            2.68333303783037        2.18333260501090        0.17351596130302
H            3.72280202902803       -1.53699803151360        0.12556021646817
H           -1.61734685141262        3.00428975379653       -0.11935092177811
H           -2.73851383200710        1.98522299101459       -1.07723845750236
H           -2.86553170252401        2.00351112881102        0.68945238171718
H           -0.99482526307025       -3.48605136978573        0.17532413367399
H           -2.20898344907420       -2.74857177166183       -0.96807030872712
H           -2.86893902442087       -2.64330962163505        0.49780629641576
H            1.62295247267696       -2.93155883674016        0.04919533210661
25
 energy: 18.267161824492 xtb: 6.6.1 (8d0f1dd)
C            3.26787078678162        1.26286388368170        0.11633574204354
N            2.36841208262992        0.14164254808082        0.06963191597408
C            2.70584481063400       -1.17560775485057        0.07356840058353
N            1.56565218938685       -1.92605481478800        0.06675173104023
C            0.46466819999580       -1.12646562943908        0.06028222619729
C            0.96922300970315        0.19178778994242        0.04498542882330
C            0.16832889532927        1.35262495299339       -0.00018524987031
O            0.51678735446402        2.52898472882499        0.00539610853131
N           -1.20703197222420        0.99401723736802       -0.06188647286187
C           -2.17384099472128        2.07007112346964       -0.15086013347368
C           -1.74345013730644       -0.25649886035695       -0.06033613796385
O           -2.93974664853292       -0.43744864605163       -0.15294660206400
N           -0.90855286472911       -1.37951606224517        0.05572746638225
C           -1.70244963374664       -2.63248045157782        0.01409454987406
H            3.92503897716136        1.20051089874793        0.98570120108478
H            3.88954368054783        1.30780018105474       -0.77929791062614
H            2.67788104762225        2.17388255764055        0.17732637284317
H            3.70995881889242       -1.53838739737600        0.12760700523003
H           -1.62143078187903        3.00608443622274       -0.12297329557846
H           -2.73830449075582        1.98366990106642       -1.07882768919238
H           -2.86646878417042        2.00606773586795        0.68778029376602
H           -1.01232839397618       -3.46967584714974        0.11199495048762
H           -2.19872708916444       -2.68600014206037       -0.92546602705768
H           -2.82016473724286       -2.67189018174849        0.50237019528344
H            1.61550134323695       -2.93095358514541        0.06025982669095
25
 energy: 17.765825857528 xtb: 6.6.1 (8d0f1dd)
C            3.26887212265605        1.26396550918669        0.11455919273086
N            2.36930314986774        0.14403779693175        0.07028015261017
C            2.70887411037323       -1.17809102237408        0.07597862200197
N            1.56396894385028       -1.92887047885928        0.07499967485086
C            0.46730675464942       -1.12461752285579        0.06923813960598
C            0.96857377969190        0.19451000661702        0.04833880123534
C            0.16675512175221        1.34997120229696        0.00020464403968
O            0.51782335004516        2.53114055033717        0.00072909229060
N           -1.20854351253029        0.99154148486753       -0.06120108750372
C           -2.17480806301537        2.06800084999290       -0.15458808270252
C           -1.74239088537821       -0.25743482691688       -0.05421456214614
O           -2.93879805857798       -0.44326578882642       -0.15069475403192
N           -0.90445002066973       -1.37750466972723        0.07269672701060
C           -1.70021644542275       -2.63057991524283        0.00913148218689
H            3.92809731005066        1.20177781008798        0.98354951728025
H            3.88927188468554        1.30693965198415       -0.78355775978961
H            2.67681068672573        2.17435102973239        0.17514122481087
H            3.71093216456095       -1.54402825438412        0.13451108799115
H           -1.62134035539527        3.00378986803818       -0.12915038898482
H           -2.73785125094142        1.97896984431311       -1.08334543582171
H           -2.86788446914583        2.00665459777136        0.68378309955140
H           -0.99975454001949       -3.47582997017335        0.05605148016543
H           -2.23611541809407       -2.63826505633177       -0.92348121882306
H           -2.79986686705355       -2.69478483028611        0.52599255164283
H            1.60764517527119       -2.93334926400723        0.07208169594586
25
 energy: 16.453511781761 xtb: 6.6.1 (8d0f1dd)
C            3.27024496355162        1.26519343554892        0.11323690591393
N            2.36982893770534        0.14838740223384        0.06877521505468
C            2.71458277266220       -1.18565491399212        0.07551105547059
N            1.55743247781969       -1.93349405748914        0.07971686383891
C            0.46998603452727       -1.12134377391898        0.07278912382569
C            0.96673742422409        0.19823493978279        0.04925955321340
C            0.16325731590763        1.34585578065344       -0.00115903279978
O            0.51901140032064        2.53336123494376       -0.00757562629842
N           -1.21379888722630        0.99048774302629       -0.05985492324749
C           -2.17758795121784        2.06806193840922       -0.15562970376332
C           -1.74357600390056       -0.25550753701164       -0.04434679542794
O           -2.94132441662570       -0.44781897624627       -0.13948680031720
N           -0.90173637221027       -1.37366222606800        0.09184679700934
C           -1.69789530459613       -2.62826738864898       -0.00249084061501
H            3.92012870479546        1.21330056475625        0.98984805706752
H            3.90276129484976        1.29750900722086       -0.77714688787683
H            2.67861131801603        2.17634623172910        0.15689334262662
H            3.71269535182858       -1.55657806217466        0.14245829935460
H           -1.62034816456779        3.00183811718413       -0.13317848259517
H           -2.74031794408893        1.97644350843727       -1.08442415815788
H           -2.86982166359776        2.00883511542558        0.68331446291363
H           -0.98715562352987       -3.46828884858156        0.00295377967968
H           -2.25923966233789       -2.59743378042657       -0.91789888290930
H           -2.76743533502391       -2.72864218991653        0.54135319436240
H            1.58717400065075       -2.93813466270488        0.08226937982458
25
 energy: 15.627631268793 xtb: 6.6.1 (8d0f1dd)
C            3.27011838075175        1.26411535428847        0.11372675014724
N            2.36925513944265        0.14801224696287        0.06790921524193
C            2.71521230817456       -1.18767663222360        0.07300805430332
N            1.55548980402040       -1.93373051313949        0.07883924542222
C            0.46984844715280       -1.12084803165991        0.07087654842352
C            0.96694271971417        0.19757121946592        0.04869469173956
C            0.16200742435021        1.34594656358966       -0.00303046578774
O            0.51880126085012        2.53247385564354       -0.01121023750860
N           -1.21508427810763        0.99164470718640       -0.05943898014780
C           -2.17852898949777        2.06931256022368       -0.15605362788203
C           -1.74438278515156       -0.25476243339817       -0.03967740607392
O           -2.94236718227664       -0.44829916134848       -0.13159209365860
N           -0.90206803444681       -1.37359403390630        0.09777688913566
C           -1.69530619839349       -2.62961931419903       -0.00519830911860
H            3.91331755032018        1.21734412274117        0.99666745112851
H            3.91056491345312        1.29094554289895       -0.77246268835362
H            2.67812152574484        2.17676891939344        0.14809898065456
H            3.71232163388517       -1.55885166492170        0.14480965695736
H           -1.62076728255931        3.00265080484720       -0.13458067956844
H           -2.74181140838314        1.97721158749994       -1.08442612503435
H           -2.87072927719358        2.01099699164011        0.68300373506430
H           -0.98487774850345       -3.46509315355768       -0.00910421551328
H           -2.26374059665421       -2.58564107513752       -0.91619779615677
H           -2.75153891391346       -2.73914992602461        0.54395693746231
H            1.58141625515717       -2.93869993469273        0.08263836527049
25
 energy: 15.122055587263 xtb: 6.6.1 (8d0f1dd)
C            3.26933030215122        1.26275216500487        0.11453635974281
N            2.36797432775462        0.14720723910093        0.06680463177089
C            2.71502844894807       -1.18859299633598        0.06889532459545
N            1.55453802558111       -1.93300547513035        0.07718667656307
C            0.46883694299932       -1.12125539075175        0.06760466319587
C            0.96716024023849        0.19588194026964        0.04801256008466
C            0.16178317938068        1.34664815239686       -0.00447870490509
O            0.51828696134250        2.53084845445273       -0.01373226785062
N           -1.21529825944208        0.99315283813876       -0.05898362740060
C           -2.17863513683127        2.07059375026732       -0.15654161689755
C           -1.74504930024191       -0.25379408735143       -0.03545050748674
O           -2.94328319098120       -0.44696571050683       -0.12414350626081
N           -0.90387236667238       -1.37407961594380        0.10201085281996
C           -1.69658773624322       -2.63006881535446       -0.00794195053678
H            3.90444901294354        1.22192695841802        1.00538806570173
H            3.91979051478721        1.28306873702184       -0.76596964429622
H            2.67800913334535        2.17758577448824        0.13741427955782
H            3.71194418132773       -1.55809307012238        0.14705286891594
H           -1.62103294790730        3.00383834018962       -0.13531863218114
H           -2.74212163240182        1.97835111691251       -1.08481235413394
H           -2.87134527975036        2.01275430560683        0.68223449921026
H           -0.98099311569320       -3.46518838347747       -0.02115447402276
H           -2.26564864691037       -2.57885700383015       -0.91194338636621
H           -2.74042992406721       -2.74721904515266        0.54964236239930
H            1.57938093427857       -2.93846157613880        0.08072142392793
25
 energy: 14.864312710302 xtb: 6.6.1 (8d0f1dd)
C            3.26898419435865        1.26272268826366        0.11485012214042
N            2.36776192727263        0.14722138827588        0.06623464429737
C            2.71520319978692       -1.18782078627711        0.06640186020494
N            1.55586887786101       -1.93238304035264        0.07662953220561
C            0.46906097820129       -1.12196650647253        0.06615876904558
C            0.96750494881160        0.19518961994317        0.04780983077733
C            0.16248280448431        1.34691321962865       -0.00427433986133
O            0.51769336524308        2.53053795574278       -0.01318851710836
N           -1.21449383947819        0.99264533527777       -0.05888184620454
C           -2.17822160159586        2.06977431614541       -0.15633687992208
C           -1.74440582301734       -0.25463583533154       -0.03556041392011
O           -2.94276438400009       -0.44717622889823       -0.12369778697643
N           -0.90374482463605       -1.37521548414977        0.10130825999758
C           -1.69693599556594       -2.63067169614963       -0.00812522184037
H            3.90089842862092        1.22380089650855        1.00857211317654
H            3.92307199808018        1.28052077462862       -0.76319565391622
H            2.67834304643731        2.17820477891333        0.13349338420253
H            3.71254048316780       -1.55566377045643        0.14781763164812
H           -1.62128176559127        3.00341066446483       -0.13448783146154
H           -2.74147678601063        1.97808571399940       -1.08483445067707
H           -2.87136839315207        2.01167742046316        0.68211142360619
H           -0.98528482798164       -3.46224837855562       -0.01939430882231
H           -2.27168736858246       -2.58016511119130       -0.91323754235217
H           -2.73780195121865       -2.74584137876746        0.55223459729095
H            1.58226797644056       -2.93788795348082        0.07862652061658
25
 energy: 14.972743196413 xtb: 6.6.1 (8d0f1dd)
C            3.26898519086380        1.26287151247917        0.11461496030656
N            2.36775200126396        0.14739623622428        0.06609427691834
C            2.71500845074479       -1.18742122918628        0.06552210067561
N            1.55622803547238       -1.93231502424505        0.07708125955490
C            0.46892013222860       -1.12217068113958        0.06674304319190
C            0.96727383157677        0.19534769279872        0.04811740562354
C            0.16291616236291        1.34692323652444       -0.00368210185962
O            0.51764706819819        2.53087496598765       -0.01243462994392
N           -1.21423803258255        0.99240274620798       -0.05890298079850
C           -2.17796101094343        2.06949943349901       -0.15621757697250
C           -1.74427987637071       -0.25466557097076       -0.03649909639929
O           -2.94264018946564       -0.44664526484947       -0.12534681999287
N           -0.90395126873409       -1.37521427333494        0.10049576699587
C           -1.69795501224727       -2.63008287384832       -0.00732093176593
H            3.90147695917986        1.22350327518589        1.00798880833326
H            3.92263062683374        1.28104648438448       -0.76387797015667
H            2.67840470043629        2.17842486913742        0.13415120008636
H            3.71257558390590       -1.55480527486607        0.14811920351922
H           -1.62112109735538        3.00323289784169       -0.13399914284663
H           -2.74090285955543        1.97793113642729       -1.08492387668954
H           -2.87119710253366        2.01103263911499        0.68209893399081
H           -0.98607785169607       -3.46420465751930       -0.01758493751326
H           -2.27107439191165       -2.58228941602343       -0.91284840689890
H           -2.74001304459230       -2.74389442658115        0.55172375109002
H            1.58380766285709       -2.93774983107654        0.07792165769849
25
 energy: 14.929838864596 xtb: 6.6.1 (8d0f1dd)
C            3.26894434575707        1.26282523019972        0.11446796688051
N            2.36766938410247        0.14750183655243        0.06550784216879
C            2.71459984516711       -1.18707284563765        0.06206861561223
N            1.55649705673713       -1.93225465790470        0.07749913915917
C            0.46859095934143       -1.12249810305889        0.06699924578304
C            0.96686876529535        0.19551042635434        0.04848727291237
C            0.16348373620400        1.34696971553454       -0.00297760348341
O            0.51742985574557        2.53133996487936       -0.01129310459733
N           -1.21406824169121        0.99209823675346       -0.05891569190205
C           -2.17774338579060        2.06920006466524       -0.15590611768212
C           -1.74425470147685       -0.25475305377772       -0.03789832764071
O           -2.94263517361438       -0.44595060631213       -0.12766784771711
N           -0.90435498443162       -1.37526591382086        0.09874213276277
C           -1.69904626333005       -2.62931794691870       -0.00673054639683
H            3.90078900769437        1.22377600738264        1.00859238989725
H            3.92364080628385        1.28042556489872       -0.76355125159678
H            2.67862217195704        2.17870644338065        0.13331804413253
H            3.71231249678502       -1.55356831177175        0.15045342183853
H           -1.62097115786577        3.00301840894892       -0.13303647594001
H           -2.74022628075175        1.97799621497913       -1.08490788714036
H           -2.87114994782953        2.01013317468854        0.68217361616997
H           -0.98699605020991       -3.46533980329143       -0.01508677055633
H           -2.27060923209161       -2.58480237661367       -0.91285590402480
H           -2.74095938608224       -2.74207207607978        0.55386451933053
H            1.58578104203121       -2.93757699185831        0.07568721817740
25
 energy: 14.825257566489 xtb: 6.6.1 (8d0f1dd)
C            3.26896856347972        1.26276754100512        0.11436464288433
N            2.36780374875235        0.14740963671475        0.06513704233207
C            2.71463144072865       -1.18720709603144        0.05945710900948
N            1.55640894655713       -1.93231211904974        0.07764262542856
C            0.46867161877637       -1.12249104028554        0.06747253190503
C            0.96689142629327        0.19556310240823        0.04874369350405
C            0.16346738236403        1.34694940710675       -0.00293801293245
O            0.51737501996789        2.53133352450263       -0.01129547777842
N           -1.21421638479147        0.99213325289781       -0.05878163312646
C           -2.17791447084782        2.06925082319590       -0.15579395580036
C           -1.74423213464207       -0.25480613611941       -0.03790630746593
O           -2.94254901130397       -0.44620632044713       -0.12782796493376
N           -0.90418110530823       -1.37523146784425        0.09871095395832
C           -1.69888949436462       -2.62920657421023       -0.00655815747118
H            3.90031405205304        1.22404765891036        1.00891501730959
H            3.92424178353101        1.28006482646232       -0.76326896550520
H            2.67856074875359        2.17863554435254        0.13256757145379
H            3.71199873002970       -1.55358986014338        0.15289304414428
H           -1.62110756725367        3.00303253696863       -0.13294899852569
H           -2.74044421715089        1.97805651472313       -1.08475366906304
H           -2.87129329549863        2.01021134242075        0.68230538263758
H           -0.98746925156030       -3.46546662359939       -0.01487508483036
H           -2.27122337651317       -2.58468410644766       -0.91265006767771
H           -2.73935143169326       -2.74161641154250        0.55369014081008
H            1.58575294757745       -2.93760935377615        0.07473243588065
