25
 energy: 35.913530636611 xtb: 6.6.1 (8d0f1dd)
C            3.50850665577313        2.10839975950767        0.28096828741572
N            2.34185461763036       -0.27726632191924       -0.07715895568744
C            2.50826490157850       -1.55577162456881       -0.02634768443215
N            1.31308992705041       -2.25196327835139        0.03257157751835
C            0.34175640190539       -1.30884450051305       -0.04437599587496
C            0.98861435797772       -0.07699743227538       -0.09308795922425
C            0.21555836408544        1.12981326983274       -0.18481355637729
O            0.64152922034250        2.25136072579878       -0.33458509340206
N           -1.15624532977698        0.90590229584699       -0.06532426473126
C           -1.98827073398598        2.09767307275807       -0.00901811956866
C           -1.80408426752385       -0.29690910135757       -0.04909957814851
O           -3.01382041108364       -0.37084112540960       -0.00335758480960
N           -1.01180137714693       -1.44771738619420       -0.07816679342403
C           -1.72615751693600       -2.70207737221618       -0.07676698563196
H            3.88586254977535        2.26671985510154        1.24978246883475
H            4.12705780038829        2.07462816372253       -0.56227295720720
H            2.50935038868408        2.40353463944842        0.08686714943377
H            3.46042679675104       -2.05325597328313       -0.12403991783866
H           -1.30549243812028        2.92144576736414       -0.21786659341143
H           -2.82181683512256        2.00795142556123       -0.68735224482644
H           -2.34663451736608        2.21950275132957        1.00977548753060
H           -1.49935735130863       -3.29328380068843        0.81373501177021
H           -1.51336731342127       -3.28008125487946       -0.97424967552168
H           -2.78020497718898       -2.41293816781593       -0.06092940412948
H            1.21520318236237       -3.25504792168489        0.07939618837821
