25
 energy: 36.871606679645 xtb: 6.6.1 (8d0f1dd)
C            3.45994265667827        2.03472553905893        0.26761722071636
N            2.35434479851261       -0.24857270811929       -0.07520947158504
C            2.52754192806532       -1.53026675501088        0.00586224070760
N            1.33312806944689       -2.22630011772111        0.04330437570517
C            0.35770611202213       -1.28881329089327       -0.04097648371580
C            0.99837239544906       -0.05210290678241       -0.08808789645996
C            0.21890003215794        1.15181587680626       -0.17374932253508
O            0.62862597189671        2.27972111727365       -0.32677046944055
N           -1.15804151882501        0.91491088508514       -0.06025496532201
C           -2.00178467069238        2.09945931972411       -0.00381944392727
C           -1.79491969008647       -0.29353105457297       -0.04654550772759
O           -3.00444977735349       -0.37810537978918       -0.00708338444002
N           -0.99468858229895       -1.43924774360540       -0.07407034534779
C           -1.70248239525347       -2.69832328877659       -0.07148900000986
H            3.83631816110931        2.18859566347067        1.23468844025288
H            4.07493059031447        1.99868330046654       -0.58102888243013
H            2.47417060928184        2.37470427273816        0.07242271358830
H            3.48353987930058       -2.02587758606503       -0.09807374513783
H           -1.31121315425694        2.92800670866419       -0.18178536407311
H           -2.83439720596583        2.00584560521421       -0.68190311571040
H           -2.38775618009025        2.20466203423144        1.00618633464263
H           -1.47108204739165       -3.28551449479996        0.81875268803841
H           -1.48363686710309       -3.27290490658097       -0.97042170144721
H           -2.75806284038699       -2.41638916410148       -0.05953985041570
H            1.23745858563019       -3.22902843878864        0.08069332769091
