25
 energy: 3.280115957206 xtb: 6.6.1 (8d0f1dd)
C            3.19201726722480        1.36626005339915        0.11253563347665
N            2.40903643805073        0.07666877519034        0.05073581405640
C            2.65380285553919       -1.32691398791111        0.05276563431842
N            1.44249095734744       -2.02073066453155       -0.00620263307355
C            0.42965890760338       -1.13320768311866       -0.02021565810334
C            0.99316838962518        0.14092940426907        0.00487884864320
C            0.17416090113000        1.28461093715678       -0.02693151381320
O            0.55464001167350        2.45447250197535       -0.06727865607780
N           -1.22144712224852        0.98895533758540       -0.03145715632535
C           -2.11964515399386        2.12661906862277       -0.03170250734647
C           -1.80036382862966       -0.23832655039881       -0.04775665730392
O           -3.00456945182830       -0.40276542907345       -0.06203794539534
N           -0.93093918200637       -1.34874005300027       -0.04727769092458
C           -1.54503368338515       -2.65844946566983       -0.06297028217491
H            3.68594889258414        1.55733854912702        1.07391238325511
H            3.98826504927311        1.38656477816053       -0.64994404423061
H            2.49493931369265        2.18001017530203       -0.06138563427275
H            3.58992002632406       -1.82443526058809        0.03153902234268
H           -1.50786767959316        3.02275554173826       -0.04558260757463
H           -2.72466767585558        2.08070055546533       -0.91450613337099
H           -2.71292238118439        2.11819595497318        0.87065872719293
H           -1.27689127597150       -3.22971076414717        0.82808545052853
H           -1.26321239283923       -3.21300008340161       -0.95999140870567
H           -2.62589123163572       -2.50138614575612       -0.07085175119759
H            1.31636962417345       -3.02608577796880       -0.02673669385716
