72
 energy: -99.328086455517 gnorm: 0.002675367358 xtb: 6.6.1 (8d0f1dd)
N           -2.32665803333492        3.05361963147565        2.45625464152146
C           -2.12131217370640        2.30722332813750        1.47582909697874
C           -3.12933554511864        2.03064795951886        0.39378690700189
C           -3.51991315711713        0.56114333335544        0.43032813956740
C           -4.31479787474936        0.03313566623888       -0.58889065615841
C           -4.71754394615374       -1.29199360981599       -0.58365950966834
O           -5.49803035895629       -1.87057977802703       -1.51845388697998
C           -6.07313551074258       -1.07047026804912       -2.52615360200122
C           -4.29838929454085       -2.14608081615362        0.47310741522031
O           -4.72492965574886       -3.42161617875050        0.39177906164388
C           -4.42803883149675       -4.31412911479696        1.44053646768428
C           -3.51004672340356       -1.61545547405117        1.48263377048374
C           -3.13176538841977       -0.27924670806437        1.46348198114022
C           -2.42944727906532        2.36104014718570       -0.95290987304518
C           -1.38518334942600        1.33015499365117       -1.41510827678176
C           -0.11351317307935        1.41434615297991       -0.65294851967945
N            0.61936263308139        0.38432979250274       -0.24150482407779
C            1.77070564182179        0.52109625488653        0.40531503461908
C            3.38448050145096       -1.15192046497180       -2.31902959625842
C            4.49542056085709       -0.74816279982249       -1.61895634855363
C            5.02914021421605        0.56272347360602       -1.77262533202645
C            6.14777373446922        0.96267631212051       -1.08921735222749
C            6.80206375068918        0.09382999967413       -0.20954277727032
O            7.89864607700910        0.38100095462358        0.50019375107301
C            8.49498558461101        1.65316425402223        0.38464974724145
C            6.28366020280673       -1.23014751739760       -0.02684946016246
O            6.98564746058284       -1.98530106588868        0.84328753116974
C            6.60859685183733       -3.32668802895664        1.04531827811318
C            5.16413703011968       -1.62511114900773       -0.71321302058828
C            0.13915005317540       -0.96457321179262       -0.48980892799609
C           -4.42565867463572        2.88362167346922        0.53250543602803
C           -5.18676450081432        2.54915610242890        1.81288858874925
C           -4.16667378091364        4.38650942621573        0.46601782963147
H           -4.63266636037395        0.67386852301866       -1.39438544685910
H           -6.66621923070183       -0.25556924429533       -2.09941330730016
H           -6.72605394625636       -1.73422402241721       -3.08990925039288
H           -5.31168508255988       -0.65928839036650       -3.19721435507990
H           -4.83827304574023       -3.96387521030041        2.39212619901140
H           -4.90317424276535       -5.25402157156178        1.16667545148174
H           -3.34946262407857       -4.47047564460649        1.54269485093267
H           -3.19374000660775       -2.23404602286555        2.30706354750524
H           -2.54577510119810        0.10089534819186        2.28603164096210
H           -3.19373390182904        2.43904236106086       -1.72603997648998
H           -1.94895265174429        3.33610668037458       -0.86679899944297
H           -1.82109428710432        0.33329276899700       -1.37100917889518
H           -1.17271102872741        1.54854204590691       -2.47059950303428
H           -1.15858470780775        1.80334940641523        1.28303456677478
H            0.31518219433205        2.39415039655556       -0.50660609345268
H            2.32912219568968       -0.33928461717457        0.70998494514534
H            2.15251861995432        1.50278753156964        0.60667373777042
H            2.89558843849719       -0.49111542615961       -3.01179976147935
H            2.99194072936440       -2.14865571159606       -2.22437086249824
H            4.54043548772059        1.24123254442023       -2.45424926078384
H            6.53133618042897        1.95924793110382       -1.24023371450127
H            7.80855954623235        2.44509699417605        0.69950143209598
H            8.83155260825891        1.84524574375471       -0.63878868660104
H            9.35625505470391        1.63443581209267        1.05096622612683
H            7.33765431458650       -3.73304326018417        1.74406618129860
H            5.60782782941242       -3.40078657964825        1.48299295444881
H            6.64316837205950       -3.89628493860770        0.11185359262584
H            4.76825819704449       -2.62118177956095       -0.59484657819709
H            0.05081242144074       -1.13820884513209       -1.56192304861846
H           -0.83610714134820       -1.11302618331949       -0.02242973005800
H            0.84049814309375       -1.68308231901826       -0.07513904819881
H           -5.06506849944484        2.61477798414654       -0.31634539230849
H           -4.61381968004884        2.86308071076410        2.67935133856905
H           -5.38350556731790        1.48227053387991        1.88740825088741
H           -6.13849025325834        3.07367162308197        1.81798263690289
H           -3.50628410882693        4.69105743654008        1.27221866027805
H           -3.73216739438303        4.68217177636475       -0.48491489625894
H           -5.10910365159084        4.91577456924964        0.57999894848500
H           -1.57015526739429        3.19226729711073        3.11861505729437
