25
 energy: -41.995686107637 gnorm: 0.003051965079 xtb: 6.6.1 (8d0f1dd)
C            3.09010467989761        1.29627784342718        0.68448684331375
N            3.18605208832897       -1.00493332591556       -0.34462445854780
C            3.14234975639919       -2.15583886459157       -0.91453994125043
N            1.95046034903089       -2.91517400005549       -0.93505613801231
C            0.90155449074028       -2.67212336778021       -0.24484031175912
C            3.23193587736191       -0.10200315732272        0.42841845602042
C           -1.11751837584099        1.66417494931134        0.27688942003942
O           -0.12361941089824        1.08448125240941        0.47796092449655
N           -2.20472735566922        2.11430479657846        0.22842882447291
C           -3.16834668005185        3.01451047056439       -0.26955552750191
C           -2.49189007937928       -0.53920523438668       -1.31681689084249
O           -3.10283894783597        0.08705398302224       -2.03541907208539
N           -0.08951648694538       -2.17759504212808        0.17804695658645
C           -1.01423849988860       -2.09938823176623        1.22313483136585
H            3.63019387895492        1.59081314915104        1.58327959203743
H            3.42275856699729        1.89777736306097       -0.16402597167807
H            2.02342526176704        1.48065486319443        0.84135309027069
H            3.99285689676316       -2.56647338997081       -1.42129014798016
H           -2.87946216604559        4.04386400061823       -0.05247197307975
H           -3.28960552823168        2.88985348614106       -1.34717557571364
H           -4.11293623289283        2.79451224705375        0.22698649901209
H           -0.79770579658896       -2.79544789942850        2.03557296645605
H           -2.00477672389563       -2.28588835191840        0.80782310397298
H           -0.99485719168853       -1.07310996022650        1.59327493226815
H            1.98077914367156       -3.75285903742649       -1.50866881395192
