25
 energy: 0.000000000000 xtb: 6.6.1 (8d0f1dd)
C            3.23720132972391        1.16630909158653        0.08434468864950
N            2.29877796055224        0.07527476373246        0.03981602671198
C            2.58028186251803       -1.21425391179017        0.03006175752192
N            1.43813944744728       -1.93419254010258        0.00098261751768
C            0.39035684826767       -1.05887462812143       -0.00790371763344
C            0.93510047688824        0.21347817468824        0.01709077332874
C            0.09450143016486        1.40504290868848       -0.00410946993748
O            0.49712746915594        2.54126690785742       -0.00342325656480
N           -1.25076628431515        1.06271869620815       -0.03085477937476
C           -2.21907191394203        2.15522079838987       -0.05001256521996
C           -1.81739470187490       -0.20012724136556       -0.04692818139228
O           -2.99983858926755       -0.37846413507442       -0.07008877579474
N           -0.92618577614240       -1.30210203518959       -0.03682761236648
C           -1.46982251276835       -2.64643077634382       -0.06029819901142
H            3.71247229913541        1.21471443890471        1.06488839270555
H            4.00791460421487        1.03430799217987       -0.67357688121503
H            2.69909982127087        2.09770098766290       -0.09130154035862
H            3.56654087521359       -1.63682977417947        0.04233139674524
H           -1.67107945562430        3.09322822573871       -0.02552706696334
H           -2.82428927394145        2.09428605349656       -0.95318074103337
H           -2.87644002486466        2.07745706351925        0.81450059976605
H           -1.17061985538665       -3.19584861009707        0.83242224714061
H           -1.14560246782873       -3.17511580834413       -0.95688266944647
H           -2.55549768731684       -2.55659960601237       -0.07459039105944
H            1.38130842369251       -2.94313824728853       -0.01389874052104
25
 energy: -1.524598831145 xtb: 6.6.1 (8d0f1dd)
C            3.23618334944581        1.18468956757199        0.08497088570954
N            2.33209236031882        0.07683258754514        0.03754632799710
C            2.65281843493583       -1.26721774566115        0.03196407513930
N            1.44594239830691       -1.93798738823197        0.00167931655327
C            0.40726777641072       -1.05108730300657       -0.00856895034208
C            0.94370732607832        0.22277896255977        0.01482407688957
C            0.09588085595924        1.40009295661007       -0.00493921222914
O            0.48181421120025        2.56945635260890       -0.00331314078637
N           -1.27024084262965        1.06016623201205       -0.03119086218225
C           -2.24198960850163        2.15279743648797       -0.04922462458890
C           -1.82815334508318       -0.19240167366912       -0.04815362865141
O           -3.02483662656647       -0.37768509886501       -0.07161943554833
N           -0.93113569146740       -1.28985128828900       -0.03771998396992
C           -1.47769586316845       -2.62932408226075       -0.06099287631777
H            3.70708660641646        1.24071543688459        1.06847606312434
H            4.00208402490421        1.05981422573961       -0.67866275924101
H            2.67795145096237        2.10593064568868       -0.09182764957992
H            3.68292477186890       -1.79059692646991        0.04836479577487
H           -1.69557481148911        3.09311637757356       -0.02448342376159
H           -2.85178088518423        2.09787246543031       -0.95145941945458
H           -2.90318211348807        2.07985873237233        0.81455657497166
H           -1.17577550174746       -3.18041643070474        0.83122613748414
H           -1.15084334914378       -3.15993131726682       -0.95695796178584
H           -2.56413526797585       -2.54104937933438       -0.07536684826196
H            1.36180464460991       -2.93754455658151       -0.01209356474813
25
 energy: 10.712800607985 xtb: 6.6.1 (8d0f1dd)
C            3.23127760656841        1.20052697565271        0.08463364648420
N            2.36398496683392        0.06579394658665        0.03341870550931
C            2.72405786668771       -1.32046402542200        0.03449063369863
N            1.45483983659968       -1.93553630493619        0.00340443792125
C            0.42510996857044       -1.04430406898537       -0.00899587526341
C            0.95595186950473        0.22943512493268        0.01234692671677
C            0.10115073984666        1.39192456827599       -0.00543591414304
O            0.45351544315077        2.57982549150873       -0.00305617415734
N           -1.28680728239056        1.06229488375872       -0.03146989935090
C           -2.26453096574506        2.15347032483701       -0.04805621785621
C           -1.82934884520018       -0.18317025667350       -0.04935877666511
O           -3.02971696167268       -0.37785539548389       -0.07363507629530
N           -0.93062506486782       -1.27427948248761       -0.03863677575098
C           -1.48439529340355       -2.60864991770674       -0.06199308832011
H            3.70013312706965        1.27840077064686        1.06901310861795
H            3.99843625284928        1.10121421328663       -0.68180009336534
H            2.64907769620126        2.10999699710220       -0.09250153122120
H            3.79165641467866       -1.96547245636321        0.05525736804418
H           -1.72744226525605        3.09964586054700       -0.02293688723491
H           -2.88059311799659        2.09935007477775       -0.94799559052866
H           -2.93070397680790        2.07953540264893        0.81377677320309
H           -1.18483088605183       -3.16238312146337        0.83011596336932
H           -1.15982910492354       -3.14207096962855       -0.95788674989035
H           -2.57147985679507       -2.51806213495513       -0.07647317462378
H            1.34332613752209       -2.93013771171229       -0.00919182670349
25
 energy: 22.115711875852 xtb: 6.6.1 (8d0f1dd)
C            3.22402485158856        1.20941040587399        0.08387035214076
N            2.37636004076042        0.05725770467493        0.03081912719521
C            2.75700007789891       -1.34837752690007        0.03584717639275
N            1.46208157872428       -1.93664020573250        0.00558002185593
C            0.43405555629349       -1.04516300954956       -0.00829046316693
C            0.96178474705343        0.23139003070684        0.01194547085149
C            0.10699033513597        1.39204364489192       -0.00511748333621
O            0.43892043478968        2.58289915615541       -0.00280948796633
N           -1.29218691114982        1.06852497254477       -0.03164503754851
C           -2.27518578393995        2.15600902140189       -0.04743643478022
C           -1.82702649789436       -0.17830876000845       -0.05011626585673
O           -3.02701708073786       -0.37844069326472       -0.07545771232089
N           -0.92728307701700       -1.26703411587786       -0.03877434302084
C           -1.48877449098213       -2.59787491697647       -0.06261977740666
H            3.69147533714267        1.30219949603490        1.06813771181676
H            3.99437514962941        1.13099336581383       -0.68241460023161
H            2.62653165007123        2.10993219038011       -0.09367944780285
H            3.86058663770355       -2.06662025137726        0.05710863870630
H           -1.74728737563141        3.10673755567023       -0.02198082931869
H           -2.89379465930881        2.09821485364321       -0.94621720854758
H           -2.94311243022196        2.07712764645475        0.81351141748953
H           -1.19352117519617       -3.15232590792913        0.83006876415630
H           -1.16805120320354       -3.13184574362678       -0.95918399844699
H           -2.57587544748948       -2.50062689329927       -0.07735867200880
H            1.33714404095336       -2.93045323096069       -0.00675300665068
25
 energy: 28.771525037270 xtb: 6.6.1 (8d0f1dd)
C            3.21991468120281        1.21280368696752        0.08371599592010
N            2.37552471727537        0.05782059270597        0.02958988045235
C            2.76316222292318       -1.35363629688721        0.03614218264685
N            1.46455251025851       -1.93567289290728        0.00628689701710
C            0.43439370393777       -1.04609675491262       -0.00784489634577
C            0.96039107091192        0.23323487631909        0.01213210167195
C            0.10847182461013        1.39583284632946       -0.00504629224759
O            0.43204084100700        2.58497774494233       -0.00276456751985
N           -1.29423140497396        1.07234817367557       -0.03177176334902
C           -2.27833750414397        2.15791925048071       -0.04737629396579
C           -1.82766055210478       -0.17688702219265       -0.05025797287883
O           -3.02686722591428       -0.37810291350531       -0.07596579912567
N           -0.92677974276234       -1.26508987666358       -0.03860269342311
C           -1.49045294966188       -2.59595243670279       -0.06266672476723
H            3.68667865007581        1.30676352513709        1.06775743266403
H            3.99074050699499        1.13784902202664       -0.68174726788605
H            2.62136007719732        2.11138397091287       -0.09437111043906
H            3.90304541134007       -2.10877783773970        0.05737894394647
H           -1.75265886822417        3.10925225673111       -0.02189049762918
H           -2.89688892602234        2.09855651113340       -0.94620479986666
H           -2.94600664478322        2.07727191538093        0.81376258600249
H           -1.19621064639429       -3.15011712840397        0.83002122876692
H           -1.17069629050343       -3.12947204611469       -0.95935024876608
H           -2.57762972780158       -2.49767420632566       -0.07744685715627
H            1.33635857052783       -2.92950617164322       -0.00644555152751
25
 energy: 39.800515752144 xtb: 6.6.1 (8d0f1dd)
C            3.21614302587401        1.21631759914753        0.08370493671916
N            2.36768296962318        0.06457714441511        0.02789031295932
C            2.75870054353396       -1.35021397205371        0.03609123885114
N            1.46480410317081       -1.93170685269160        0.00665462421465
C            0.42985377552049       -1.04614063229970       -0.00752782263516
C            0.95403633251171        0.23680798902491        0.01259543822181
C            0.10809083760920        1.40313018343965       -0.00506909475476
O            0.42326289424965        2.58898521831649       -0.00257276611880
N           -1.29752601922640        1.07599670522052       -0.03199098833111
C           -2.28165911372615        2.15970281840803       -0.04747805567269
C           -1.83151428413917       -0.17609702234040       -0.05032898243018
O           -3.02937736432521       -0.37705807385570       -0.07613156662393
N           -0.92864244851567       -1.26348593491282       -0.03839058392736
C           -1.49252886569888       -2.59595782981026       -0.06259419669981
H            3.68269472945124        1.30667799033966        1.06763134065333
H            3.98692905071042        1.13828298511915       -0.68066269063337
H            2.62190324915525        2.11579939784915       -0.09512087337976
H            3.97838361746283       -2.16438374347766        0.05826555132238
H           -1.75660612393069        3.11080943357384       -0.02199423410409
H           -2.89969634831559        2.09998233265921       -0.94652778075477
H           -2.94871727188006        2.07869200348650        0.81400869363734
H           -1.19756256295726       -3.14886852764470        0.83000706346072
H           -1.17219771717911       -3.12806684972364       -0.95931524693890
H           -2.57979707701067       -2.49878774723377       -0.07732801906474
H            1.33555437300461       -2.92596582621173       -0.00678238577583
25
 energy: 55.211231069198 xtb: 6.6.1 (8d0f1dd)
C            3.21331200137640        1.22029253242414        0.08383598841600
N            2.35299543235500        0.07848531202317        0.02581245998191
C            2.73797283561020       -1.33381713090344        0.03416944643320
N            1.45996277599568       -1.92417406869242        0.00631323926632
C            0.41948343672857       -1.04322843616612       -0.00739120755524
C            0.94262040590910        0.24232485387638        0.01346635222866
C            0.10418331044156        1.41175617516046       -0.00479092281083
O            0.41497267947256        2.59514281762917       -0.00208374556441
N           -1.30297434078771        1.07764646608324       -0.03219107795126
C           -2.28534461764033        2.16099269247387       -0.04783356150760
C           -1.83932306047130       -0.17562469966886       -0.05026215896838
O           -3.03582537160511       -0.37534045759979       -0.07599376944995
N           -0.93455475229193       -1.26203182609879       -0.03809501320292
C           -1.49498464147369       -2.59754566235031       -0.06241900736394
H            3.68055953475903        1.30262782153384        1.06796477797105
H            3.98344946507203        1.13206821969454       -0.68010459601854
H            2.62727144121265        2.12438927976895       -0.09519544336161
H            4.09910106387208       -2.24049896320825        0.06101166468589
H           -1.75857435723630        3.11127067895669       -0.02232771405150
H           -2.90256662284025        2.10259062243399       -0.94726795002242
H           -2.95177837534785        2.08148993506882        0.81400138149636
H           -1.19725475399839       -3.14875508791592        0.83004598756420
H           -1.17200876828147       -3.12782962830658       -0.95902947476581
H           -2.58223995650877       -2.50387066673322       -0.07714744465730
H            1.33375954065070       -2.91933199073951       -0.00745429859730
25
 energy: 54.935752464461 xtb: 6.6.1 (8d0f1dd)
C            3.20147808400898        1.23066349786351        0.08397962820516
N            2.31636726136324        0.10795047030853        0.01977973593129
C            2.68939517684726       -1.29451556157456        0.01345551563437
N            1.45091870586094       -1.90092581852976        0.00488910340967
C            0.39624277116289       -1.03456578696372       -0.00552161508910
C            0.91630092853985        0.25743717329183        0.01719292497870
C            0.09621314547125        1.43275223708872       -0.00151432094489
O            0.39471935911697        2.60694472627153       -0.00096914152113
N           -1.31529103505964        1.08493474896182       -0.03262022122949
C           -2.29472415195514        2.16505430103191       -0.04872444027934
C           -1.85449662591397       -0.17353645467832       -0.05035214885220
O           -3.04702726502812       -0.37182473042204       -0.07671267722687
N           -0.94756879577066       -1.25667690636316       -0.03644638040063
C           -1.50008542026178       -2.59875881808400       -0.06195127007580
H            3.67139244138063        1.29823799400404        1.06685416047119
H            3.97128974000099        1.12659266524245       -0.67809244044727
H            2.63034982960594        2.14137499505249       -0.09513197336016
H            4.39458036520897       -2.45543015089111        0.07860038657875
H           -1.76622173239322        3.11398355131491       -0.02295384817338
H           -2.90962939652186        2.10600652121182       -0.94903346571126
H           -2.95902055181375        2.08495366498052        0.81411206917035
H           -1.19777881984097       -3.14652948543266        0.83024740489803
H           -1.17233529092367       -3.12509924558352       -0.95840895289654
H           -2.58703392649685       -2.51014938279897       -0.07694996720546
H            1.33417950838421       -2.89984541655829       -0.00669415366942
25
 energy: 54.044905357856 xtb: 6.6.1 (8d0f1dd)
C            3.18616379378811        1.23758261488003        0.08239702657075
N            2.27205485711347        0.13299969006283        0.02122861330358
C            2.63089243027160       -1.24026360649923        0.01396196601333
N            1.43866559358484       -1.86936063112246        0.00383808131952
C            0.36731216094234       -1.01967334011551       -0.00502337859618
C            0.88888158282801        0.27032542735647        0.01882186342570
C            0.08089992291673        1.45359269280271       -0.00322312989500
O            0.37455850460605        2.61028435553054       -0.00064826624105
N           -1.32538678259540        1.09427834549922       -0.03318107403328
C           -2.30366117666468        2.17011512730526       -0.04863630084873
C           -1.86926100388781       -0.17244940995244       -0.05044755491562
O           -3.05774166826386       -0.36701802744323       -0.07660418868078
N           -0.96248721438144       -1.24933576939008       -0.03672819839537
C           -1.50457873751097       -2.59924227469057       -0.06209991246466
H            3.65981472365129        1.29143642643017        1.06315879891199
H            3.95770327838164        1.11562341900602       -0.67499220489238
H            2.63486905407436        2.15752749371687       -0.09779039864570
H            4.71957903434751       -2.68523620854006        0.08483642708911
H           -1.77455348535363        3.11829342443262       -0.02290962130844
H           -2.91614203406275        2.10868537581660       -0.94949472534524
H           -2.96535198147152        2.08756671925261        0.81504754338831
H           -1.19692393763073       -3.14355701335295        0.82958012093823
H           -1.17171305978450       -3.12205313291460       -0.95793331375751
H           -2.59123064904124       -2.51700423498777       -0.07699996903822
H            1.33985109911504       -2.87408867433902       -0.00912429170783
25
 energy: 52.701408894537 xtb: 6.6.1 (8d0f1dd)
C            3.17522326495671        1.23494393737308        0.08088268357428
N            2.24565367255162        0.13787018358488        0.03064785442090
C            2.59302033093511       -1.18538376870772        0.02435141291889
N            1.42100845497713       -1.84349607694450        0.00346883811757
C            0.34536070175089       -0.99958621354630       -0.00575512260390
C            0.87358675352545        0.27715418954834        0.01784361254267
C            0.05651914554395        1.45634154780684       -0.00556401753106
O            0.36786096687926        2.61479154685171       -0.00147051283476
N           -1.33232182948082        1.09528168432816       -0.03305385777347
C           -2.30816254772296        2.17336430677061       -0.04840902973689
C           -1.87913495835901       -0.17243994249193       -0.05057595984012
O           -3.07014535718833       -0.36174776118076       -0.07613031869344
N           -0.98116194418747       -1.24471051617197       -0.03850010171271
C           -1.50770357406518       -2.59893347992118       -0.06264463483504
H            3.65218401118468        1.28301245172506        1.06029339355434
H            3.94689290104818        1.09884379089849       -0.67446387990672
H            2.63964162814580        2.16459815526665       -0.09987186222059
H            4.94607806847364       -2.82119542794702        0.08007991783799
H           -1.77444371193849        3.11997407959250       -0.02267946234434
H           -2.91860268582668        2.11141662263900       -0.94992009392940
H           -2.96793156808984        2.09029400448399        0.81587789596603
H           -1.19413720290751       -3.14267630231697        0.82857659857441
H           -1.16917804760296       -3.12168435182650       -0.95751697845326
H           -2.59422286797803       -2.52515848992031       -0.07738304755765
H            1.34633070034733       -2.85184538115012       -0.01104941533917
25
 energy: 52.391948023562 xtb: 6.6.1 (8d0f1dd)
C            3.16882919873611        1.23548570816795        0.08111702873269
N            2.23553887865054        0.13915497825122        0.03566062920933
C            2.57891112291301       -1.15368486275316        0.02881518359020
N            1.40479163348988       -1.83641900042350        0.00295402047854
C            0.33511627288511       -0.98763486064496       -0.00836319120566
C            0.86303982691794        0.28484341873090        0.01526360630375
C            0.03350080987082        1.45422635646212       -0.00436986877344
O            0.36920361668674        2.61603260307034       -0.00177684876687
N           -1.33797950135706        1.09690394933505       -0.03248271600408
C           -2.31313565074844        2.17733714753271       -0.04881253513679
C           -1.88313935672020       -0.17098071159616       -0.05081698721650
O           -3.07769279994542       -0.35555862805382       -0.07571010954795
N           -0.99410723485683       -1.24345579603441       -0.04020187317039
C           -1.50994021480522       -2.59810751629627       -0.06270449455285
H            3.64849982199471        1.28016377589875        1.06001222962058
H            3.93903681789213        1.09184700903776       -0.67505392160023
H            2.63952042419071        2.16980624476683       -0.09871585805371
H            5.08893777434444       -2.90263776889365        0.07486699131082
H           -1.77460305072410        3.12197258906803       -0.02293058038830
H           -2.92166376174111        2.11489804078453       -0.95110327125702
H           -2.97177683489767        2.09400330430766        0.81571693459698
H           -1.19230812550616       -3.14182906843569        0.82833967297164
H           -1.16791617509391       -3.12180329124297       -0.95683418004200
H           -2.59663028340831       -2.53077407620464       -0.07713129052673
H            1.34818109620476       -2.84476075609064       -0.00870465837747
25
 energy: 52.294461539567 xtb: 6.6.1 (8d0f1dd)
C            3.16833202359523        1.23671916243020        0.08114509996229
N            2.23559183586136        0.14034207654597        0.03680696920835
C            2.57980900831612       -1.15233625832946        0.03093308131657
N            1.39926590431353       -1.83964569867511        0.00247628012415
C            0.33631042445986       -0.98598388638649       -0.00901959528191
C            0.86007750667500        0.28869055046523        0.01408969540269
C            0.02544630077575        1.45326914931438       -0.00543222835045
O            0.37177221042807        2.61563426004920       -0.00264249351509
N           -1.33941999985548        1.09802319253105       -0.03272390121817
C           -2.31504681417805        2.17847338436315       -0.04840188910727
C           -1.88227391677225       -0.17039213299421       -0.05059038487908
O           -3.07787834434202       -0.35440939187712       -0.07512902095648
N           -0.99498035275823       -1.24368299980145       -0.04037464912167
C           -1.50952096513638       -2.59706624224325       -0.06296902314153
H            3.64816361725930        1.28117157823526        1.06008645722145
H            3.93845740179999        1.09125957181085       -0.67507976840034
H            2.63891590426408        2.17073124929918       -0.09935458951281
H            5.10746050479047       -2.91383022311413        0.07561954679840
H           -1.77447178098572        3.12204860449370       -0.02285558693281
H           -2.92322442708156        2.11525444680239       -0.95061160398930
H           -2.97259284015446        2.09448735862396        0.81665084838054
H           -1.19208232611684       -3.14136473876448        0.82806874417513
H           -1.16737752586668       -3.12128908527680       -0.95702669127194
H           -2.59634290341702       -2.53062359830560       -0.07754748834696
H            1.34782385909839       -2.84645154045242       -0.00908389636917
25
 energy: 52.245373957696 xtb: 6.6.1 (8d0f1dd)
C            3.16871145792598        1.23679847875642        0.08119195622478
N            2.23595806904391        0.14078984709009        0.03696475493473
C            2.58001869700020       -1.15261358184153        0.03087466872907
N            1.39585933161570       -1.84193386263237        0.00247851427686
C            0.33817721521323       -0.98571638204917       -0.00928584866862
C            0.85904166823084        0.29024656553132        0.01381452545356
C            0.02078751048204        1.45239280637121       -0.00479660562217
O            0.37518953587977        2.61410573159038       -0.00186596623615
N           -1.33902489399677        1.09868699972158       -0.03256639260216
C           -2.31545252283499        2.17877422448660       -0.04866921243564
C           -1.88098540820021       -0.17048983091084       -0.05061830376053
O           -3.07706498449931       -0.35389380308851       -0.07541049879955
N           -0.99443536334292       -1.24411431599907       -0.04019018237023
C           -1.50924005536339       -2.59649544976219       -0.06278260496385
H            3.64888528770402        1.28099663843374        1.05999003723600
H            3.93869574387731        1.09207074436554       -0.67542122920090
H            2.63823610099235        2.17012036089022       -0.09860398419446
H            5.10588432094209       -2.91122952760358        0.07426210634730
H           -1.77431749539581        3.12199863858462       -0.02286297220511
H           -2.92289306066478        2.11504530273340       -0.95113048729116
H           -2.97308194564703        2.09422809269963        0.81602445686379
H           -1.19231386673735       -3.14130526091960        0.82825480744156
H           -1.16760047401077       -3.12134661230907       -0.95677158763967
H           -2.59620347354436       -2.53018417829138       -0.07732932964277
H            1.34938291030273       -2.84790283710341       -0.00851670968008
25
 energy: 52.222778680133 xtb: 6.6.1 (8d0f1dd)
C            3.16906847935063        1.23648370132519        0.08120130569808
N            2.23620178102258        0.14064268184028        0.03692421817883
C            2.58002540273519       -1.15325199444397        0.03131771055080
N            1.39513500537405       -1.84234998268144        0.00247742720346
C            0.33882832146064       -0.98591459909830       -0.00938185035372
C            0.85922159939868        0.29016411975616        0.01353540910568
C            0.01971107670660        1.45227201438736       -0.00553776018866
O            0.37590935850852        2.61379627556893       -0.00244805089577
N           -1.33862207799424        1.09878847312077       -0.03276206322184
C           -2.31538487099769        2.17877482950094       -0.04840978033519
C           -1.88087825329439       -0.17084009981378       -0.05058811383855
O           -3.07700082483033       -0.35366761918999       -0.07515247794123
N           -0.99429090393017       -1.24413319976693       -0.04019516310739
C           -1.50919736126679       -2.59647056648251       -0.06295619620190
H            3.64891452610862        1.28103562979095        1.06013226787719
H            3.93918725223036        1.09155258433292       -0.67521447854384
H            2.63859944837483        2.16980747352028       -0.09903423460441
H            5.10205268609043       -2.90771752813954        0.07502214616214
H           -1.77421116161479        3.12198870395452       -0.02284190610003
H           -2.92327178036050        2.11514594961899       -0.95056192658325
H           -2.97263515954421        2.09432479616122        0.81656082294147
H           -1.19223653777956       -3.14141039711803        0.82802361162092
H           -1.16750888111762       -3.12129208580000       -0.95697635454562
H           -2.59621530869937       -2.53037274717460       -0.07753102926428
H            1.35081248904102       -2.84832762442540       -0.00856962141833
25
 energy: 52.211795415832 xtb: 6.6.1 (8d0f1dd)
C            3.16909247424988        1.23628007641649        0.08121523498630
N            2.23630900205799        0.14032835391947        0.03666201463667
C            2.57988891531572       -1.15392002384388        0.03072585546138
N            1.39487460550442       -1.84232490896714        0.00248555709573
C            0.33892636709828       -0.98609961760814       -0.00923978766538
C            0.85961571330960        0.28972531165892        0.01396152604325
C            0.01959583593848        1.45230763743869       -0.00464756824990
O            0.37627183011139        2.61366826639863       -0.00165961917300
N           -1.33812756491288        1.09882822266970       -0.03246608388675
C           -2.31515571457287        2.17867427162586       -0.04876415816895
C           -1.88102648616320       -0.17119921037791       -0.05055135280522
O           -3.07709719363481       -0.35326502934474       -0.07545431333000
N           -0.99447948289353       -1.24391448150475       -0.03995921439068
C           -1.50934834923687       -2.59647592724110       -0.06273197281127
H            3.64911581020956        1.28069315749390        1.06005842655188
H            3.93894566736672        1.09192333334013       -0.67551859495751
H            2.63835971516093        2.16968064829982       -0.09846443782778
H            5.10050985121408       -2.90566985699123        0.07412991611998
H           -1.77426101396079        3.12206598186622       -0.02293269918222
H           -2.92256561897428        2.11496971261808       -0.95125810911128
H           -2.97294657016883        2.09423113496114        0.81581765580877
H           -1.19232398946374       -3.14132090618591        0.82828150950125
H           -1.16757116542304       -3.12129663645931       -0.95671408037759
H           -2.59632300929760       -2.53037696793214       -0.07730204324899
H            1.35193467613784       -2.84848375350678       -0.00863974882409
