25
 energy: -42.498262859823 xtb: 6.6.1 (8d0f1dd)
C            3.17518813901067        1.23282329493318        0.08074085385415
N            2.24898075449039        0.13091083172204        0.03154626641491
C            2.59032483089871       -1.16807494810727        0.02518053741114
N            1.40079208685241       -1.84391111816068        0.00185508713938
C            0.34393806794595       -0.98773814177102       -0.00702811907944
C            0.86929829192782        0.28581754962902        0.01499416007250
C            0.02668691677600        1.44928026876882       -0.00448526953725
O            0.37183157855575        2.61340747502666       -0.00137479066247
N           -1.33307627569646        1.09374096701601       -0.03244475755345
C           -2.31040702885221        2.17328647136350       -0.04856415852719
C           -1.87839576648567       -0.17419390983868       -0.05040791108490
O           -3.07458061303846       -0.35728344391519       -0.07587703110104
N           -0.98959483431347       -1.24488959011620       -0.03876312462732
C           -1.50684055849874       -2.59678309463400       -0.06240508583517
H            3.65323958495516        1.28466015719199        1.06066032655915
H            3.94755126055798        1.09752179905049       -0.67455372548764
H            2.63725083857300        2.16137760074440       -0.10057754753439
H            4.97508091232175       -2.83815199711319        0.07778095443453
H           -1.76993567459374        3.11579895015899       -0.02289756343716
H           -2.91786723041133        2.11054863916229       -0.95095284694228
H           -2.96783310063256        2.08978117423146        0.81631754210944
H           -1.19401293529426       -3.14261897809446        0.82912098250722
H           -1.16907311953387       -3.12143605174058       -0.95763170401969
H           -2.59343759064907       -2.52422451611571       -0.07739128081320
H            1.34757050534919       -2.84871218692643       -0.01040182899882
