72
 energy: -99.599809602763 xtb: 6.6.1 (8d0f1dd)
N           -1.37862988727477        3.20360465234537        2.43077127168558
C           -1.58804166616965        2.12700948804716        1.77349350435926
C           -2.74603421890673        1.96143952938694        0.98263729090613
C           -3.24239502717221        0.62680431484826        0.78028302445901
C           -4.18661269701874        0.30544716299307       -0.22591210453952
C           -4.62163959102409       -0.97805822598950       -0.44610223196434
O           -5.47640594237397       -1.33727601754494       -1.45292859719379
C           -6.03933700242353       -0.33439810832456       -2.25752776503258
C           -4.17404946486424       -2.02177958919254        0.39079939111311
O           -4.65704919713401       -3.26647820153555        0.09120692849227
C           -4.35605286918551       -4.32006338332936        0.96595834394573
C           -3.31920992697167       -1.70800895430339        1.43653927877652
C           -2.86174997781913       -0.41416651376380        1.62805047754690
C           -2.26934727866199        2.00705520568978       -2.05865233230625
C           -1.56819463407881        0.73538525390516       -1.81929260259767
C           -0.18305128997453        0.80557490160915       -1.39257676380305
N            0.43673007853841       -0.18827314300514       -0.74295646978897
C            1.80782884861287       -0.06259440871616       -0.30206707385044
C            2.80348361908929       -0.60760375847428       -1.34645149072492
C            4.21642675491799       -0.44480725902198       -0.86447413901017
C            4.90561400416643        0.73953813932101       -1.05265718349976
C            6.20239021928878        0.89328021454373       -0.57294477180169
C            6.83011698625176       -0.13849691883933        0.10404564701895
O            8.10283283568274       -0.10658077815871        0.59262237073731
C            8.87964301641673        1.04322749657284        0.36815000055384
C            6.12648739346229       -1.34652512406369        0.31976723245151
O            6.81738778575640       -2.30747298501909        0.99735711411892
C            6.20165609953362       -3.55224160762842        1.20491354424999
C            4.83389795586902       -1.47748563262825       -0.16042613697572
C           -0.20066474694882       -1.47108708090916       -0.65688845251514
C           -3.73397102985348        3.10249382867869        0.86464046282941
C           -4.27737962206322        3.40499524772616        2.24353018764795
C           -3.13453657954515        4.34477623114878        0.20391635021508
H           -4.54241666744903        1.08900473611153       -0.87289944643538
H           -6.59401710925373        0.40637795331529       -1.67064418951842
H           -6.72692474422660       -0.82664015254578       -2.94426291234187
H           -5.26324649337284        0.16485325559973       -2.84525874985420
H           -4.68192202677177       -4.11933839790069        1.99011153128816
H           -4.88866194152731       -5.19084803095984        0.58180785865410
H           -3.28224144899188       -4.52466884511614        0.97609151584204
H           -2.99003378801990       -2.47715320453281        2.11804381514331
H           -2.23091905751547       -0.20678132484479        2.47574106170303
H           -3.13299152104468        1.97641928573841       -2.69935857036416
H           -1.59537102811192        2.82245122496610       -2.16986733488781
H           -2.20717097587447       -0.01286497646218       -1.32630044885609
H           -1.54630700402141        0.54601390455010       -2.89599507344053
H           -0.89313649650211        1.27540184000442        1.72930601929726
H            0.44076319922968        1.71849371242221       -1.52993730095401
H            1.92094999487741       -0.59052704952956        0.64391435551157
H            2.04712570294634        0.98288166072469       -0.09846265820244
H            2.65855622000563       -0.03920830693151       -2.26532845829293
H            2.57179009420591       -1.65951480932035       -1.53287085090033
H            4.43815057434406        1.55519741152945       -1.58353259277652
H            6.72246103572568        1.82554781648703       -0.73680497448559
H            8.44179651432124        1.92038799502562        0.85274165301555
H            9.00875058827152        1.24436534753455       -0.70143298171709
H            9.85513322375301        0.84325147279471        0.81113408089124
H            6.93462760800767       -4.16990341684510        1.72280847197943
H            5.30907336216486       -3.45450360706885        1.83025962436124
H            5.93114485926973       -4.03446173608761        0.25860389486957
H            4.28384356309919       -2.39310616034851       -0.00628006054093
H           -0.32714744464525       -1.86969247486544       -1.66482149478371
H           -1.18309571329137       -1.36470298177495       -0.18899314067267
H            0.39293583621930       -2.15828268456441       -0.06060377287156
H           -4.63399160588644        2.80514298847421        0.30439373900541
H           -3.45747817850200        3.70725294592122        2.87044799846549
H           -4.73634186095676        2.52438277191499        2.67444339761005
H           -5.03616717477549        4.17561931411135        2.18303457099221
H           -2.28439912366435        4.64494873699931        0.80901655236719
H           -2.83195387955818        4.10913111701362       -0.81653270866903
H           -3.85803330552763        5.16753291168807        0.20931535099038
H           -0.62996464643580        3.09360560997483        3.10233792297100
