  25
        -42.08104187
 C          3.2401532253        1.1340866595        0.0090619658
 N          2.2846943918        0.0594440394        0.0006632726
 C          2.5473486388       -1.2399625983       -0.0135513147
 N          1.3970244454       -1.9430270430       -0.0052991832
 C          0.3607102461       -1.0575366234        0.0129641462
 C          0.9150861217        0.2169928341        0.0202843934
 C          0.1160422723        1.4062410186        0.0131553176
 O          0.5008628841        2.5544644191        0.0122770684
 N         -1.2868033607        1.0915242532       -0.0028842665
 C         -2.1501216633        2.1175379492       -0.0070130775
 C         -1.8539089625       -0.2170324508        0.0040051070
 O         -3.0419152271       -0.3794973228       -0.0016259153
 N         -0.9660258517       -1.2899894744        0.0130690418
 C         -1.4979637857       -2.6417734986        0.0177686697
 H          3.6912173226        1.2324792875        0.9979876825
 H          4.0263283712        0.9457620623       -0.7202112214
 H          2.7255449830        2.0639023892       -0.2296525544
 H          3.5298407542       -1.6704945621       -0.0330619517
 H         -1.7373185442        3.1097363362       -0.0230835149
 H         -4.9143512483        2.0276883595       -0.8367442802
 H         -3.2161698686        1.9263850190       -0.1185177657
 H         -1.1826951181       -3.1703060821        0.9173340513
 H         -1.1727217337       -3.1808398173       -0.8720429076
 H         -2.5846133811       -2.5703812208        0.0113622083
 H          1.3261692535       -2.9513307538       -0.0148964960
