25
 energy: -42.442123884504 xtb: 6.6.1 (8d0f1dd)
C            3.25314202791195        1.14431161812024        0.04446026682373
N            2.32915375190212        0.04812463912754        0.01902065613947
C            2.63576873171618       -1.26213586247561       -0.00578849021757
N            1.49876427658006       -1.98964691206918        0.00151487983865
C            0.43938524723529       -1.14327190161826        0.03789003332092
C            0.93831863099515        0.16582175840871        0.05149042260216
C            0.11597041704883        1.30651663801841        0.07497341433718
O            0.46968941927813        2.48703783043302        0.07365979967075
N           -1.27642895992934        0.95578488801534        0.11071738872746
C           -2.16936865308751        1.95778578046257        0.16135642986065
C           -1.79288494998128       -0.34989203530945        0.09549035912292
O           -2.98635922691494       -0.57285818965373        0.11991874789374
N           -0.88398914064234       -1.41035470957894        0.05581294181674
C           -1.37772714513742       -2.77057969327991        0.02866895275596
H            3.74360760836290        1.21067593614646        1.01844168256938
H            4.01369596852407        1.01506602533856       -0.72598347615717
H            2.69279555288958        2.06258361823735       -0.13200688226526
H            3.62559518523861       -1.66182220459357       -0.03769879720577
H           -1.79758702114530        2.96090079250511        0.15148478860915
H           -3.25696620990174        4.43798763752919       -1.54409075920939
H           -3.21374866796924        1.71947891223880        0.18120262291873
H           -1.06224097988741       -3.31270357440330        0.92251104661967
H           -1.02200906784939       -3.28842592262601       -0.86406607219452
H           -2.46549368113177       -2.72038951319496        0.00580254090815
H            1.45904903816081       -2.99644662810117       -0.01574147287995
