72
 energy: 46.142003981733 xtb: 6.6.1 (8d0f1dd)
N           -1.58699807060722        3.06772846278764        2.35896920678764
C           -1.59049376018433        2.27981042355915        1.38166323618496
C           -2.75062217747254        2.09780995252285        0.45044125225664
C           -3.27100008176043        0.66545951536795        0.56604225621800
C           -4.18643175445693        0.21253209422891       -0.39401208862593
C           -4.72770767707359       -1.06197560635504       -0.48674156103450
O           -4.55895658512673        0.03756246012030       -2.89560707949520
C           -5.60099882093053       -0.34699785160014       -3.38492136702545
C           -4.34610563783847       -1.94429570834328        0.56471347631536
O           -4.82472851951360       -3.22833445200661        0.57936605538984
C           -4.64167702481373       -3.97970503601388        1.74554281554403
C           -3.50378805666512       -1.47586159866812        1.57119281627547
C           -2.95842902731459       -0.19913377996001        1.59117365262671
C           -2.21465069280041        2.33723462513662       -0.98918894869857
C           -1.36450176280946        1.20066718720277       -1.59106548733876
C           -0.04547378818874        1.08469095863653       -0.93339113585831
N            0.56080330357840       -0.09145013565512       -0.60604619055574
C            1.93431331656865       -0.11411991186102       -0.18865564166569
C            2.86643004329844       -0.60183135217569       -1.32270056981381
C            4.29993937477446       -0.49244815815028       -0.89733327453444
C            5.00020323291691        0.68645873955060       -1.07563884705133
C            6.31441277770410        0.80591568422444       -0.64775199007020
C            6.95567550706092       -0.25135720913776       -0.02654197075334
O            8.23886545384498       -0.24936822809559        0.43159972837489
C            9.02085211455615        0.90010680503566        0.23643809004384
C            6.24890051674887       -1.46013643375989        0.16704339755827
O            6.95642805729635       -2.44661098459194        0.78371062214500
C            6.34160869200498       -3.69052655873363        0.99575888805716
C            4.93862161553355       -1.55844083026557       -0.26139462652704
C           -0.15127219814980       -1.34084876408156       -0.64957159913187
C           -3.95591169844834        3.03796457590381        0.71760445624444
C           -4.59295121010539        2.74934350148773        2.07277879732802
C           -3.59239195850368        4.51445703266906        0.61001676251657
H           -4.47218633871894        0.92817969897067       -1.13993201666858
H           -6.49445246366740        0.23443277556767       -3.30897543386021
H           -5.45719546871974       -1.29694538064761       -1.51497813217354
H           -5.66520563624954       -1.16134959960165       -4.11599449338903
H           -5.03368082015971       -3.47427043656796        2.63500654608199
H           -5.20731935674074       -4.89633620505047        1.60256351287687
H           -3.58995793213127       -4.25242370205832        1.89395562082949
H           -3.26500253666404       -2.12214223510703        2.39470465639905
H           -2.33279282797446        0.10095877511071        2.41965901159231
H           -3.06674985754211        2.48023263279903       -1.65418780378840
H           -1.62476034012161        3.25664756753497       -1.00361028003483
H           -1.91523106367471        0.26349496839338       -1.55563607464905
H           -1.24182269761126        1.45568058438745       -2.65496203970025
H           -0.73202880710299        1.65584108486214        1.06322924827160
H            0.59881259546267        1.94774318510513       -0.91419860636262
H            2.06813100753025       -0.76486994447849        0.68552157491569
H            2.24380957731220        0.89425761908400        0.09958304016324
H            2.68557333707374        0.01855045486469       -2.20280095583285
H            2.61767493451663       -1.63411321271539       -1.57434868767943
H            4.53093777639007        1.52791198008808       -1.56279347573235
H            6.83303274276378        1.73879313685927       -0.80582072020169
H            8.60916466944487        1.76230155237410        0.77171599058554
H            9.12502263686018        1.14790363443124       -0.82446381796791
H           10.00200415317915        0.66213100571765        0.64983821158195
H            7.09667236067572       -4.31145883568756        1.47604365535803
H            5.47208074755775       -3.60722748725403        1.65785251899500
H            6.03945447101195       -4.15502696189449        0.05070768008545
H            4.39279887438328       -2.47953858094050       -0.12388330360658
H           -0.35640227118949       -1.62861219302701       -1.68396811580509
H           -1.10595157383506       -1.28395141296792       -0.11567506718719
H            0.45455914194760       -2.11579374616097       -0.18197948210689
H           -4.69924549755841        2.80750116251701       -0.05478359464427
H           -3.88140935650146        2.93156259496913        2.87211355244114
H           -4.93411437200922        1.71806739044022        2.12866939770682
H           -5.44933614785574        3.40169778350243        2.21716296145166
H           -2.83780704521085        4.75591506478533        1.35084526988953
H           -3.21550553979518        4.75689913896690       -0.38057932988393
H           -4.47436069089782        5.12298908869858        0.79750157763560
H           -0.72747876507700        3.09607692420859        2.90051616330654
