72
 energy: 65.502521417713 xtb: 6.6.1 (8d0f1dd)
N           -1.57567943526072        3.00277046503839        2.34116212647556
C           -1.56187309069451        2.26930339016514        1.32176740298727
C           -2.73032704091057        2.12239539081503        0.40142048033985
C           -3.25514722856498        0.72985262223613        0.57752260725459
C           -4.09724335540529        0.32146241607095       -0.41900687559490
C           -4.49702852546721       -0.95285585343270       -0.70170615693646
O           -4.52285924426378       -0.75543451097114       -2.27368189708765
C           -5.78223807779232       -0.64775029726171       -2.99899182302398
C           -4.29855767496138       -1.89897712761720        0.42736087065719
O           -4.84292830183426       -3.16749147599011        0.52077643803781
C           -4.64362917777629       -3.99433207747639        1.66502826944456
C           -3.54319120456281       -1.43128358527470        1.50888456813757
C           -2.93055814967776       -0.18655062069589        1.54104367726359
C           -2.21065063530589        2.33052328367098       -1.04868909269318
C           -1.33636341152661        1.19652356143534       -1.62700271234421
C           -0.00353855361191        1.07737520232330       -1.00278679191050
N            0.55631955663026       -0.08613439654470       -0.51936948880467
C            1.95361685578832       -0.09842233287005       -0.18139957984367
C            2.89132189453262       -0.58523878984997       -1.31711809978706
C            4.32360391076286       -0.47718262376821       -0.88688079743759
C            5.02900663993937        0.69762435053392       -1.07038472160471
C            6.34022077295905        0.81607232631363       -0.63512273007620
C            6.97267605163454       -0.23928811175835       -0.00076022385857
O            8.25735011823440       -0.24049938389823        0.45994454313951
C            9.03796119260989        0.90816272425497        0.26224301301846
C            6.26085710000738       -1.44250838633347        0.20040717156352
O            6.96032852470829       -2.42922294748138        0.83044709873024
C            6.33431845767187       -3.66624067546231        1.04397568923324
C            4.95281835640950       -1.53866728620220       -0.23428109282012
C           -0.12942933111561       -1.34358435322301       -0.63634653452207
C           -3.93151328325988        3.05761373070698        0.67612371664166
C           -4.56563613808753        2.75730757300593        2.03134255644810
C           -3.53341087845691        4.52233645489745        0.59290692508105
H           -4.32624196999283        1.01155644598173       -1.20197972275882
H           -6.41905612000788        0.31004162748648       -2.93566575948993
H           -6.18692678400997       -1.40010406674141       -2.34278002636029
H           -5.65163355959423       -0.79594239899714       -4.06759725901274
H           -4.98484967451371       -3.54921779320765        2.61896389327053
H           -5.22809521659420       -4.90401190516605        1.47972023033275
H           -3.59331830200908       -4.30118533094624        1.73516836985369
H           -3.31886299105264       -2.07858671424145        2.35088387509325
H           -2.25120402384915        0.08896045460296        2.32967260828462
H           -3.06357394004589        2.45559841059996       -1.72225326873226
H           -1.63544202706139        3.25544348433773       -1.06834896390631
H           -1.88547970108924        0.25793248917664       -1.56830503233888
H           -1.19896694371646        1.43468847302016       -2.69954567017667
H           -0.71762527528099        1.65847974439254        0.94256580800479
H            0.63501628812691        1.94164490517454       -0.98752099961106
H            2.08872890315163       -0.75616561587194        0.68396934045659
H            2.25641012088649        0.91676301907483        0.10088074797269
H            2.71154632402839        0.03491516382540       -2.19670960043658
H            2.64477312500293       -1.61850897700217       -1.56525147101850
H            4.56113341679525        1.53639770803757       -1.56304071641792
H            6.86087853731871        1.74714542079238       -0.79534005833124
H            8.62238357085326        1.77590118183425        0.78636537193091
H            9.14889324959384        1.14693126985137       -0.80034965067758
H           10.01674602610932        0.67536106879239        0.68247480094605
H            7.08142135974409       -4.29118889514201        1.53162897666615
H            5.46071629934379       -3.57371323813424        1.69973191400626
H            6.03282536563979       -4.13297252469722        0.09967368952655
H            4.39700101443078       -2.45234487912360       -0.08904024257763
H           -0.31284991264830       -1.64000904046280       -1.67551777452260
H           -1.09078017629235       -1.28623323787413       -0.11926886473952
H            0.48227247333575       -2.11160098880632       -0.15835363475379
H           -4.68406826388924        2.85293128003935       -0.09675080299358
H           -3.84590664825062        2.92041636922376        2.82706948031497
H           -4.91726078474664        1.72886810750508        2.08012277465581
H           -5.41110917054934        3.42024870828340        2.18902803291683
H           -2.76648938717270        4.72095539640203        1.33231299891697
H           -3.15778935360446        4.77018203373787       -0.39633415049503
H           -4.39704291292235        5.14691055218614        0.80404237837137
H           -0.71730399238037        3.02975297810182        2.88585231769658
