72
 energy: 56.146027312289 xtb: 6.6.1 (8d0f1dd)
N           -1.57295836169539        2.97866312161500        2.33614039233264
C           -1.55987775381241        2.25712565951965        1.30754305932719
C           -2.73089717044222        2.11781360297766        0.38777787056959
C           -3.25486304852350        0.72523806748108        0.56031113591154
C           -4.08303931753393        0.30426265071038       -0.44737117586908
C           -4.49183107094568       -0.96933404820601       -0.72451345305078
O           -4.57394442320864       -0.87668045287447       -2.23656075183394
C           -5.84347779667395       -0.63283030133249       -2.96360767857926
C           -4.29576325466054       -1.90227562890905        0.41517570991549
O           -4.85946520746717       -3.16223088641478        0.52064324123606
C           -4.64413938351071       -4.00543729738804        1.64559018668819
C           -3.52768359618672       -1.44096244680681        1.49494978149019
C           -2.92444374046902       -0.19208706353692        1.52039450788676
C           -2.21050646117040        2.32748891329022       -1.06173250626100
C           -1.32896495938969        1.19604792907352       -1.63398288172976
C           -0.00459184812976        1.08051179223241       -0.98727593283098
N            0.55704664916316       -0.08611117357869       -0.50621257784274
C            1.95879555782148       -0.09557762384180       -0.17843946223602
C            2.89610135598224       -0.58198019644255       -1.31494978041864
C            4.32812601478461       -0.47343191505035       -0.88486749601174
C            5.03433410993582        0.70055291177458       -1.06931020424569
C            6.34497720062677        0.81861324658163       -0.63254126460214
C            6.97522851316587       -0.23627995612060        0.00461835793154
O            8.26064692591959       -0.23851627972444        0.46510554528895
C            9.04117003631518        0.91007256955167        0.26719489024532
C            6.26224638946085       -1.43837172799612        0.20721203095527
O            6.96090721896536       -2.42542794746004        0.83928809776110
C            6.33298382217845       -3.66133505131576        1.05364786509656
C            4.95469558482541       -1.53424326530318       -0.22849768295112
C           -0.12281462866487       -1.34343085612759       -0.63417911978268
C           -3.92708920603586        3.05870520188890        0.66691095306629
C           -4.55995313289352        2.75871312060203        2.02297584907986
C           -3.52115988142466        4.52229375219528        0.58883776080703
H           -4.30941176119047        0.98871695083057       -1.23770425261176
H           -6.45688131056464        0.32127571936814       -2.83777765291392
H           -6.29409359639441       -1.39908164992594       -2.37139350886814
H           -5.65206566463747       -0.71667310125027       -4.01781419032833
H           -4.97326930500165       -3.56899626279207        2.60659056813915
H           -5.23348489285681       -4.91128297636319        1.45614348102183
H           -3.59316744231223       -4.31221465347632        1.70113953179094
H           -3.28945274832261       -2.08663886293879        2.33660826632720
H           -2.24011464899920        0.08634522753510        2.30348990715647
H           -3.06237424760746        2.44987405537003       -1.73727135437316
H           -1.63800238168334        3.25398528183268       -1.08048348197731
H           -1.87603018045822        0.25607466419274       -1.57407337452068
H           -1.18352041706229        1.42950534259232       -2.70796613391255
H           -0.71418320740005        1.65727481306705        0.91464629432539
H            0.64702575223794        1.93518082048828       -0.99423328595686
H            2.09973398916314       -0.75219547044798        0.68752598898383
H            2.25945616935824        0.92161607657282        0.10105249352368
H            2.71556320119735        0.03825982859430       -2.19401785135508
H            2.64871997182989       -1.61511422729244       -1.56160207507143
H            4.56693314811941        1.53889335205908       -1.56326885330452
H            6.86659395154275        1.74882793878471       -0.79420696592411
H            8.62476011269472        1.77924167330282        0.78859913538924
H            9.15392509663357        1.14698584717782       -0.79570586835916
H           10.01908031327693        0.67757349694322        0.68931442938924
H            7.07905048205857       -4.28643408827314        1.54273045643948
H            5.45874442599585       -3.56716444320423        1.70837961461919
H            6.03158333174687       -4.12900165647767        0.10972547441407
H            4.39742545045260       -2.44686638693957       -0.08205092119025
H           -0.30308729165177       -1.64097789462801       -1.67418246326138
H           -1.08519222372669       -1.28574571037319       -0.11926283224175
H            0.48924459919917       -2.10915867705591       -0.15385324225729
H           -4.68320694431067        2.86237606056417       -0.10514881396681
H           -3.83813390697115        2.91844018326384        2.81746096363016
H           -4.91348040404546        1.73082348157829        2.07080435215775
H           -5.40339483087140        3.42382009021277        2.18373201516549
H           -2.75168334439959        4.71393088439717        1.32730679398925
H           -3.14647463119572        4.77346391607393       -0.39995634682203
H           -4.38072489186420        5.15119416085009        0.80500822438654
H           -0.70944951146943        3.00475047648869        2.87237005037665
