72
 energy: 38.727035282270 xtb: 6.6.1 (8d0f1dd)
N           -1.55449254286662        2.94045035958546        2.31270147452522
C           -1.55523144670791        2.23062530744559        1.27653076616302
C           -2.73120198572685        2.10893389975642        0.35997807941698
C           -3.25693113075005        0.71665227243219        0.51802226524768
C           -4.09503219760940        0.29406131853053       -0.47592436189887
C           -4.48624991559904       -1.00316538925557       -0.72159471038143
O           -4.75709014972686       -1.07545001029255       -2.11662992249546
C           -5.96371499349690       -0.60225204049082       -2.85812318299726
C           -4.29121126914851       -1.91462720275992        0.39975514681419
O           -4.89529834333169       -3.15675133753910        0.50949140523932
C           -4.64756189562212       -4.02621037759220        1.60152808856482
C           -3.49364650043230       -1.46332274487027        1.46674124928996
C           -2.91234794278776       -0.20553027777577        1.47548461540802
C           -2.20924464129206        2.32178059123708       -1.08820431724688
C           -1.31588510735778        1.19612386198372       -1.64801405337095
C           -0.00374209767743        1.09568318604680       -0.96901965311202
N            0.57263994976398       -0.07879779670638       -0.53132621526701
C            1.96879467822446       -0.08502947066754       -0.17646363087314
C            2.90715464431053       -0.57469836483647       -1.30930344334201
C            4.33705980620995       -0.46540645613940       -0.87814763237542
C            5.04449991784619        0.70686301298094       -1.06600604099676
C            6.35438038841062        0.82382847789525       -0.62700435315164
C            6.98042052994023       -0.23043104689226        0.01529049376785
O            8.26611214140459       -0.23405076976197        0.47647342101005
C            9.04729042628533        0.91391970565343        0.27738795524970
C            6.26478604462130       -1.43034169402488        0.22153099044049
O            6.96090077569998       -2.41729854419306        0.85761190732946
C            6.32993656263117       -3.65166957412038        1.07315588710325
C            4.95823254127829       -1.52570520084399       -0.21624872479577
C           -0.10757562030978       -1.33781662372862       -0.63327118630084
C           -3.91591513239430        3.06177078169038        0.64938725269630
C           -4.54737198517791        2.76172748879635        2.00647804630281
C           -3.49582645997631        4.52284999466886        0.58106702620303
H           -4.35465962565451        0.95373862051848       -1.27780150113876
H           -6.54258472488618        0.33401785366044       -2.62933196300322
H           -6.50278641624936       -1.43041354864161       -2.49033364051126
H           -5.62924050875081       -0.55358693854468       -3.87941889515424
H           -4.95184667658646       -3.60566274791929        2.57550749833669
H           -5.24452960486100       -4.92489943378448        1.40802855868593
H           -3.59556934916742       -4.33193027945693        1.63179597423436
H           -3.23264713740037       -2.11089773627730        2.30077310726639
H           -2.21842298296480        0.07855850668311        2.24806738246413
H           -3.05837892923054        2.43748029452361       -1.76728709073569
H           -1.64188153400660        3.25142936615803       -1.10575341314656
H           -1.85825582703211        0.25326127600533       -1.58333315677649
H           -1.14976938643023        1.41828391348217       -2.72076088775505
H           -0.70684201046893        1.65153760857811        0.85805330719794
H            0.66613180470435        1.93766164404162       -1.02162678296047
H            2.11370451766099       -0.73934087847434        0.69346665451318
H            2.26670311196862        0.93337081439179        0.10171615910884
H            2.72485322805232        0.04491024254741       -2.18810267442480
H            2.65611343978659       -1.60750584113138       -1.55259092032695
H            4.57800288555559        1.54398229022544       -1.56302914682694
H            6.87820739767827        1.75193738058190       -0.79257522382301
H            8.62951532120611        1.78557979589842        0.79383206694542
H            9.16352148062072        1.14650177055279       -0.78619024113128
H           10.02318337149744        0.68128398336749        0.70330859422027
H            7.07416378615575       -4.27685154577351        1.56487845885769
H            5.45460140500066       -3.55446323530893        1.72589836473811
H            6.02902418445959       -4.12116126662899        0.12993901708992
H            4.39849637630575       -2.43651456869866       -0.06754210403874
H           -0.28661466206998       -1.64273165131028       -1.67128892250915
H           -1.07051013957514       -1.27796341726071       -0.11819389482995
H            0.50475783180581       -2.09815347676581       -0.14644590564412
H           -4.67738561541627        2.88111205444118       -0.12147738959411
H           -3.82286241500214        2.91468730360329        2.79989959849726
H           -4.90566040222492        1.73536987852448        2.05208777857765
H           -5.38709531369868        3.43115383367964        2.17116992344799
H           -2.72140734286583        4.70365467444015        1.31724965974654
H           -3.12403109954318        4.78062717117333       -0.40716123339023
H           -4.34895395474889        5.15787263324962        0.80632458296723
H           -0.68818084149341        2.95667578439175        2.84235200637470
