72
 energy: 36.553244348410 xtb: 6.6.1 (8d0f1dd)
N           -1.59373694099695        3.06683589354049        2.36087572876468
C           -1.59261340899132        2.27945851026261        1.38190094685277
C           -2.75422505434550        2.09260618145682        0.45109613327115
C           -3.27398347299745        0.65498224667925        0.55547338299098
C           -4.18543953709157        0.19078820089013       -0.40366580257809
C           -4.72701610560582       -1.08697811365235       -0.47297116358941
O           -4.59509542933846        0.15740911334469       -2.99785944408782
C           -5.61934551691019       -0.31494085817243       -3.44070459623916
C           -4.35239686254522       -1.95550710403135        0.58535523469055
O           -4.82980599422289       -3.23675723843121        0.59549672422350
C           -4.63864389628716       -3.99168243865851        1.75151922838192
C           -3.49698627359867       -1.48442393304161        1.58499637918110
C           -2.94741555636358       -0.20868751085296        1.58519909503129
C           -2.21445424583121        2.33439885194887       -0.98741809535832
C           -1.36507438674087        1.19630330958362       -1.59161076942133
C           -0.04463725974310        1.08154218579161       -0.93696448717897
N            0.56405203681290       -0.09312278622452       -0.61591029416218
C            1.93359950713169       -0.11114656527072       -0.18929643922714
C            2.86316565879718       -0.60345322026371       -1.32156405547067
C            4.29616528197227       -0.49389044768596       -0.89686851415523
C            4.99632602827993        0.68526690845241       -1.07523446817686
C            6.31205055060731        0.80548894067958       -0.64954028991739
C            6.95242016856961       -0.25342339659656       -0.03034810243850
O            8.23647650435732       -0.25207892502342        0.42628301675096
C            9.01740765555916        0.89799868495572        0.23230224573382
C            6.24620568508397       -1.46307253596917        0.16125091170291
O            6.95664951785002       -2.45092501412493        0.77417648553485
C            6.34342271252681       -3.69565210612831        0.98553812233274
C            4.93556368102081       -1.56192471584021       -0.26550381850039
C           -0.14879450148062       -1.33990834771026       -0.65360082866703
C           -3.96042099670553        3.03372727222840        0.72411981675138
C           -4.59751970531039        2.74815705676432        2.08043047824877
C           -3.60453069145572        4.51313559052169        0.61357442981990
H           -4.48347112823403        0.89386965821059       -1.15849922822493
H           -6.57198094508434        0.16059502536450       -3.30443244519270
H           -5.41387336320647       -1.29729799856021       -1.45968698761689
H           -5.68874504329563       -1.20691862233128       -4.10249363448938
H           -5.02929168941523       -3.49440596515834        2.64390968292264
H           -5.20703662999589       -4.90052274681771        1.60771621943119
H           -3.58668299876810       -4.24725979370449        1.92022082544865
H           -3.24228727055661       -2.12468270443257        2.41142274807873
H           -2.31037897588119        0.08876099348241        2.40924792773845
H           -3.06883238729461        2.48822031819086       -1.64454977838601
H           -1.62131592920064        3.25363021228688       -0.99212968085703
H           -1.91149450993350        0.25674840206736       -1.55618542963528
H           -1.25046791597889        1.44692661903468       -2.65981663240290
H           -0.73088031075194        1.65427697699380        1.08344385099710
H            0.60447104934196        1.93981474564431       -0.90713049998968
H            2.06524223155126       -0.75724576566750        0.68753183105249
H            2.24095321748244        0.89560559567110        0.09928901491082
H            2.68071228281006        0.01577975354884       -2.20207085320834
H            2.61226385725021       -1.63587187557626       -1.57123214720454
H            4.52563412710022        1.52639679412132       -1.56180746567573
H            6.82958684326110        1.73810548493213       -0.80819082784919
H            8.60636427450311        1.75980683213976        0.76886364648330
H            9.12035429034927        1.14792669321677       -0.82837053647963
H            9.99911227556790        0.65924260257709        0.64432860641147
H            7.10043457718020       -4.31541495349982        1.46438033485793
H            5.47477534242418       -3.61423314512379        1.64914668466128
H            6.04080079936785       -4.15955306859021        0.03996778007499
H            4.39097996409403       -2.48450970114056       -0.13185810748613
H           -0.35668468215701       -1.62445594808254       -1.68688500072709
H           -1.10105939026117       -1.28067691526911       -0.11546165619420
H            0.45076264752230       -2.11840460613841       -0.18476577270659
H           -4.70367560420620        2.79855960432988       -0.04663213274842
H           -3.88730562898996        2.93767170295698        2.87918644356335
H           -4.93542983500734        1.71581216586234        2.13975101530307
H           -5.45692001542644        3.39801518763833        2.22167132508770
H           -2.85308327533044        4.76227002394695        1.35515886946838
H           -3.22671372929157        4.75464476958752       -0.37698741503645
H           -4.49026318113237        5.11848832240349        0.79640404148981
H           -0.72318612826241        3.07941116737200        2.88862382952059
