72
 energy: 23.820058595077 xtb: 6.6.1 (8d0f1dd)
N           -1.60495882127836        3.02508130242935        2.35901787738920
C           -1.60743650948625        2.25589791957169        1.36578248240234
C           -2.77033192978392        2.06727849533286        0.43094075695178
C           -3.30081136778063        0.62929770021713        0.52119306615007
C           -4.18753307896443        0.12886589506717       -0.43968725550581
C           -4.71373483710143       -1.15921945717225       -0.42192331056691
O           -4.74452397136489        0.45925493121030       -3.31804457709999
C           -5.72667971939562       -0.18209892524442       -3.63640316393250
C           -4.35047808950588       -1.96943753341664        0.65881109878226
O           -4.85030382104920       -3.23173453358019        0.66463425132082
C           -4.64264817959434       -4.02913844455358        1.79316848292546
C           -3.48065922852369       -1.48298679836598        1.63802318584905
C           -2.94941635045291       -0.20496365928510        1.57872231852012
C           -2.22862235180126        2.31498232380896       -1.00436720292785
C           -1.36875565746606        1.18047065474958       -1.58962637279466
C           -0.02647558979169        1.06626846885028       -0.98181766763138
N            0.55250746456858       -0.09341809882261       -0.56882748598735
C            1.93436046684632       -0.10203565707194       -0.18880752796922
C            2.86602563153222       -0.59722304052967       -1.31777553671502
C            4.30054586479853       -0.49059064230070       -0.89182512570425
C            4.99950799195722        0.68710365009880       -1.07641415584744
C            6.31529472939812        0.80919412022853       -0.65315995170952
C            6.94895728119420       -0.25248217020390       -0.03142964210147
O            8.23395779058658       -0.25243546128627        0.42133674340312
C            9.01666789888395        0.89801535486781        0.22600351747418
C            6.24225146151693       -1.46068211126518        0.16800285393029
O            6.95102829956269       -2.44722776584224        0.78395510950456
C            6.34385615209483       -3.69661515484325        0.98687130711626
C            4.93139868652786       -1.56298620611560       -0.26198383658664
C           -0.14682473296338       -1.34676708762228       -0.64783519391912
C           -3.96171171693176        3.02885739177711        0.70942690318892
C           -4.59553028426101        2.75479144859197        2.07365710582477
C           -3.59175312524082        4.50728045595622        0.60020286342736
H           -4.46816588303207        0.79914266549075       -1.24221114925310
H           -6.73101754719639        0.09867680295317       -3.36744407427189
H           -5.30962052932464       -1.38593925919324       -1.30652547751883
H           -5.65599012352140       -1.07276770593171       -4.25320108797341
H           -5.01870597659566       -3.54799967042081        2.70418176440803
H           -5.20627746918714       -4.93721408981820        1.59432160128845
H           -3.58568684559786       -4.26626147900465        1.92497529927571
H           -3.20079012285580       -2.10688827286049        2.47086431484993
H           -2.27841675016791        0.10831642826908        2.37735266902124
H           -3.07624163439498        2.46128132622834       -1.66929665379971
H           -1.63827413899509        3.23319445443956       -1.00773333891726
H           -1.92105551307735        0.24378347941258       -1.54656237376863
H           -1.23310622111678        1.41598137398033       -2.65346857841681
H           -0.72999866849466        1.66258972361335        1.07187850962984
H            0.58513939445104        1.94827768374249       -0.91154795520829
H            2.05094942818331       -0.74983271727025        0.68453403378088
H            2.23748128290474        0.90696284483152        0.10012112291060
H            2.68530230011333        0.01882601806813       -2.19980113299776
H            2.61071449095687       -1.63027114551658       -1.55843670050177
H            4.51941983456037        1.52203077292799       -1.56448202575090
H            6.83279650700812        1.74021259059624       -0.81869025620923
H            8.61044217420918        1.76307279684839        0.76062962483638
H            9.11817435701669        1.14205569485038       -0.83618241580026
H            9.99546178248771        0.64996402350657        0.63255345111146
H            7.10491211541647       -4.31475043629863        1.46131771982977
H            5.47525098858518       -3.62243300168815        1.64931062345059
H            6.03980596924371       -4.16409050973678        0.04388976605082
H            4.37910726453734       -2.47960511272858       -0.11872314236893
H           -0.35404781231561       -1.64171890569361       -1.68111420996422
H           -1.09379097212714       -1.27617019509112       -0.10898368672791
H            0.46132489968896       -2.11797432761073       -0.18146070726672
H           -4.71167318034225        2.81202057763678       -0.05892217113492
H           -3.87033848800194        2.94535831476792        2.85746464208296
H           -4.92972664206905        1.72272946623588        2.14403043068005
H           -5.45845694008865        3.40091614892519        2.22059327232513
H           -2.83516818228687        4.75562482352068        1.33819634591233
H           -3.22139230166187        4.74800650812132       -0.39166416542313
H           -4.47650307351780        5.11515522217840        0.78267234112808
H           -0.72900239902036        3.06634549978855        2.87816868860943
