72
 energy: 20.599383128184 xtb: 6.6.1 (8d0f1dd)
N           -1.59323806758379        3.02377369243298        2.33476044772187
C           -1.60761732762848        2.23609694496219        1.35836515897644
C           -2.77173777214715        2.05474055270973        0.42697428121281
C           -3.30351577292088        0.62765460842550        0.52100166016102
C           -4.16931771323364        0.12573623216462       -0.44569749505920
C           -4.66850527019940       -1.16471765482548       -0.39611648749241
O           -4.80707305574424        0.57604639995980       -3.45573636841825
C           -5.78827580926089       -0.07886712834273       -3.77035101184362
C           -4.31805011182076       -1.98211045510676        0.69206583223068
O           -4.85060692492254       -3.23689318717167        0.70751193153446
C           -4.63955861285360       -4.04575208187213        1.83480159563121
C           -3.46625772923805       -1.48750344184474        1.67653963686865
C           -2.96328981036552       -0.20151103098392        1.57931538885305
C           -2.23032483343066        2.31017851393078       -1.00368349489713
C           -1.36272208952215        1.18658456636316       -1.59541266908329
C           -0.02440357469717        1.07465718145962       -0.98003127946851
N            0.54934760848739       -0.09103700641921       -0.55291126398703
C            1.93518842512801       -0.10584614724463       -0.19005572062359
C            2.86357509130022       -0.59619246078345       -1.31845607229638
C            4.29571825184757       -0.48604453546001       -0.89057701869731
C            4.99641628950251        0.69091167717827       -1.07548515006315
C            6.31250816447448        0.81085166093988       -0.65146058195371
C            6.95064608040428       -0.24755742323766       -0.03248073590150
O            8.23575527789049       -0.24847035798476        0.41935033938063
C            9.01893554133866        0.90346657153719        0.22753100247389
C            6.24225186465596       -1.45660587940241        0.16381236572936
O            6.95457309128924       -2.44313311253547        0.77624918605697
C            6.34564491813866       -3.69061950601468        0.98893727184094
C            4.93110334963026       -1.55721672833143       -0.26050210163390
C           -0.14925271447066       -1.34444283415021       -0.64869696350794
C           -3.96226460259675        3.01429142277571        0.71181185116650
C           -4.59573491568109        2.74258907188300        2.07505628652658
C           -3.59087489513608        4.49244872320738        0.60234183818849
H           -4.43834194299060        0.75443887011353       -1.27973429337179
H           -6.81459830638965        0.18738879042186       -3.47052417999011
H           -5.30644542563659       -1.49467916059974       -1.21726029268953
H           -5.71799405682084       -0.96526016577113       -4.41782756410949
H           -5.01197692545745       -3.57626419560893        2.75367070122629
H           -5.20568077791182       -4.95176469732491        1.63624041200533
H           -3.58340881560379       -4.30130940860367        1.95878184815365
H           -3.18219509050726       -2.09480800782821        2.52344620223753
H           -2.30976384188803        0.14106422072598        2.36756767353380
H           -3.08202066135300        2.43699276887091       -1.67280386251723
H           -1.65498206923768        3.23854570370351       -1.01244656651709
H           -1.90918244421612        0.24707772110360       -1.55809411396178
H           -1.21637276718472        1.44007881767329       -2.64995302689399
H           -0.72417871455747        1.66031978674436        1.03965976458853
H            0.58227976642613        1.96114399737776       -0.93078042071945
H            2.04948533052188       -0.75652497859783        0.68205878059740
H            2.23864256011286        0.90663896950887        0.09354789794676
H            2.69125271723902        0.01877871622991       -2.20431807914795
H            2.61693294147529       -1.63054970211045       -1.56323565832982
H            4.52380718280316        1.52920937514158       -1.56518466242319
H            6.83338917216829        1.74117861524944       -0.81656506641206
H            8.61090157109152        1.76520335625969        0.76600512780879
H            9.12014388708460        1.15046631814707       -0.83459136626535
H            9.99759929844828        0.65538803298210        0.63425241106705
H            7.10686726161190       -4.30681547674147        1.46537228877453
H            5.47827013684165       -3.61398475648508        1.65456351768952
H            6.04187034466952       -4.15876892944772        0.04646599617835
H            4.38498093135713       -2.47754049986831       -0.11933575610165
H           -0.35618122684406       -1.63413823452546       -1.68525146799140
H           -1.09911571268904       -1.27581785391386       -0.11348437832701
H            0.46640370574404       -2.11121483474334       -0.18758701289142
H           -4.71146225804517        2.79272196876610       -0.05590847445893
H           -3.87963501824091        2.93128194339769        2.86834493033554
H           -4.93614837612259        1.71244547997880        2.14540950967433
H           -5.45358215516882        3.39644104445151        2.21580656755792
H           -2.83978328026695        4.74262460595888        1.34401334725471
H           -3.21756003641735        4.74143180890694       -0.38778896915076
H           -4.47187863747464        5.10265144316631        0.78848065871524
H           -0.74501760742712        3.08849291133572        2.89215167696428
