72
 energy: 22.167484020353 xtb: 6.6.1 (8d0f1dd)
N           -1.59990135977632        3.02368393159635        2.34579443871960
C           -1.60859650811565        2.24490565147766        1.36122460328288
C           -2.77324635442185        2.05872706363200        0.42644364944307
C           -3.30934058030516        0.62316798272098        0.51082875207354
C           -4.18607563574363        0.11788147209687       -0.45238028615538
C           -4.70236589415488       -1.17073764056019       -0.41914237343920
O           -4.79760036324624        0.57139410724482       -3.45512129412396
C           -5.76449455845426       -0.12131901307904       -3.72497375479022
C           -4.33521829987527       -1.97517052404550        0.67087862319850
O           -4.85056799646302       -3.23143548897129        0.68692094160891
C           -4.64181202549173       -4.03707713759561        1.81308759184758
C           -3.47666836998484       -1.48100090823874        1.65405701300025
C           -2.96216220387251       -0.19855190443495        1.57634129182469
C           -2.23069809018337        2.31167740329689       -1.00455253487071
C           -1.36719413356907        1.18305742869703       -1.59187533371293
C           -0.02235247263428        1.06688535644894       -0.98979244237743
N            0.54766791539888       -0.09203160256485       -0.55467778570224
C            1.93372149628188       -0.10365643982779       -0.18972886291648
C            2.86402138940786       -0.59658064792919       -1.31713440572742
C            4.29826135987062       -0.48809278104810       -0.89026718604825
C            4.99902498579313        0.68897775352737       -1.07706622971904
C            6.31437773087319        0.81060081405479       -0.65368243979993
C            6.95016008361165       -0.24922488965561       -0.03253342284582
O            8.23463146588471       -0.24789774261005        0.41976799521364
C            9.01930791567600        0.90237744827555        0.22612685182158
C            6.24289438730602       -1.45775508224734        0.16712617568822
O            6.95180350529790       -2.44259406702058        0.78505238458729
C            6.34346854333841       -3.69005078647393        0.99463195675133
C            4.93097788031196       -1.55909884130513       -0.25816361234961
C           -0.14941054463551       -1.34781438394216       -0.64679839691477
C           -3.96168703289491        3.02297045237561        0.70859724950130
C           -4.59561033256797        2.75172488608783        2.07145939386256
C           -3.58436945755522        4.50052288673045        0.59810013067398
H           -4.45183673645920        0.77739617216697       -1.26661228985207
H           -6.77977225456880        0.12265289729395       -3.41027990126393
H           -5.31712454692749       -1.45809999530995       -1.28119477606655
H           -5.68039178531802       -1.02444851289936       -4.33766016204243
H           -5.01386299791236       -3.56043812229690        2.72867864584413
H           -5.20870928321795       -4.94373249969151        1.61329808314340
H           -3.58657398524034       -4.29382319062248        1.93144063421243
H           -3.19879689968853       -2.09569711674024        2.49542788386271
H           -2.29932894987762        0.12681538840487        2.37232439218095
H           -3.07916930969129        2.44769954598289       -1.67217255609631
H           -1.64754997552537        3.23249331945806       -1.01238131513260
H           -1.91731639491097        0.24568140196242       -1.55078427837625
H           -1.22468810646425        1.42881016984135       -2.64934381986869
H           -0.72359756058041        1.66939264136435        1.05348417763048
H            0.57965551390010        1.95612782318667       -0.92196996445496
H            2.04492664570213       -0.75423900957123        0.68070113700442
H            2.23793259252411        0.90725865179917        0.09678219065944
H            2.68921373168508        0.01911600626815       -2.20074060344590
H            2.61367676253545       -1.63016535827562       -1.55841503965863
H            4.52189332312329        1.52494253316400       -1.56643704029368
H            6.83323795844467        1.74196198414490       -0.82130342717659
H            8.61118004721134        1.76582672803771        0.76143805591826
H            9.12297616154210        1.14517475076587       -0.83636510093486
H            9.99729248046982        0.65325585562376        0.63541975356566
H            7.10312946728241       -4.30838431043814        1.47136307759083
H            5.47460641951279       -3.61540081578077        1.65760219701949
H            6.03855649461524       -4.15912610220735        0.05289903187712
H            4.37943924714646       -2.47541561154682       -0.11360279177898
H           -0.35619590073409       -1.63888411103161       -1.68185595808698
H           -1.09685626667872       -1.27661951560236       -0.11005276644991
H            0.46386672812694       -2.11510357184607       -0.18402149262864
H           -4.71209590099358        2.80529158795295       -0.05976959412176
H           -3.87626574187655        2.93992850156865        2.86171940138201
H           -4.93324955217956        1.72052799012936        2.14056122017247
H           -5.45383778509479        3.40464188588398        2.21572165299003
H           -2.82755720409743        4.74660377898294        1.33675612796505
H           -3.21151329045448        4.74493557741043       -0.39276019849469
H           -4.46343998271806        5.11496430871320        0.78389551875637
H           -0.73802608099436        3.08167589644107        2.88486955766778
