72
 energy: 25.921861741638 xtb: 6.6.1 (8d0f1dd)
N           -1.60957458544548        3.03099140325821        2.36868260992185
C           -1.60373343568790        2.26720687689903        1.37032334597488
C           -2.76418197244920        2.07562954343292        0.43776333274807
C           -3.28755233016041        0.63574650192664        0.53375204783210
C           -4.18464721403463        0.15116574482812       -0.42747999052072
C           -4.71910671760757       -1.13302464600605       -0.43826233852850
O           -4.71198693061708        0.38390710085122       -3.18876755130637
C           -5.69806008801046       -0.21500345890008       -3.55971368112849
C           -4.35950564827327       -1.96275298947564        0.63792789703602
O           -4.84599141408102       -3.23256436135533        0.64046899150469
C           -4.64212608237385       -4.02022555040931        1.77466534107840
C           -3.48294022310979       -1.48956389253877        1.62110122988434
C           -2.93540492141367       -0.21518401547598        1.57914289970427
C           -2.22246728564483        2.32009425036643       -0.99920293100477
C           -1.36726943679976        1.18103876740007       -1.59086492121667
C           -0.03284669182878        1.06877822651239       -0.96720388875875
N            0.55585620144907       -0.09391087340540       -0.58195243938746
C            1.93362291312262       -0.10263495556618       -0.18748918190624
C            2.86335776453824       -0.60008902970902       -1.31857306682898
C            4.29803491205877       -0.49301720873684       -0.89462472076475
C            4.99645741636605        0.68561707560681       -1.07584418896898
C            6.31336266936987        0.80775446650245       -0.65261463226769
C            6.94760190388737       -0.25447790418466       -0.03351531404739
O            8.23363584613349       -0.25563936169032        0.41877817800666
C            9.01532569635715        0.89563791557346        0.22680792957998
C            6.24135658279861       -1.46327298418185        0.16324864923388
O            6.95253898350546       -2.45148465741273        0.77531592022877
C            6.34562284835234       -3.70137560064969        0.97706095408577
C            4.93168691783889       -1.56544027087645       -0.26736080306368
C           -0.14648364332316       -1.34494936867645       -0.65073041157841
C           -3.96319461603678        3.03004178083656        0.71556757774145
C           -4.59843866845272        2.75069946297779        2.07957394502141
C           -3.60442461780212        4.50950330943103        0.60376119974419
H           -4.48528214728866        0.82888313899239       -1.21197142686314
H           -6.72688503586904        0.07654207839108       -3.33916640641577
H           -5.33359838677655       -1.34625430647620       -1.34919272931141
H           -5.65073236188017       -1.12006882944057       -4.16318596665214
H           -5.02505821202699       -3.53867848529364        2.68085648348986
H           -5.20609716643465       -4.92525324723647        1.58287043611449
H           -3.58637376778987       -4.24584223842724        1.93428739072219
H           -3.19543401898519       -2.12356883312138        2.44875706953413
H           -2.26534700981443        0.08902894105394        2.38508088891596
H           -3.07107485309543        2.47417250719577       -1.66206234739718
H           -1.62952999261062        3.23785761002273       -1.00056263561001
H           -1.91686155469644        0.24262611474101       -1.55370842232062
H           -1.23994959716723        1.41849094509406       -2.65886273982758
H           -0.73190286151296        1.65626109011637        1.09318115885704
H            0.59077301002379        1.94244340652350       -0.90150079669832
H            2.05654832808939       -0.74686198301507        0.68876089013984
H            2.23720677785628        0.90455122559552        0.10166149900481
H            2.68011306246395        0.01710956121758       -2.19964779823799
H            2.60836066533303       -1.63306971563350       -1.56208056153358
H            4.51733020603005        1.52364454972116       -1.56040781080758
H            6.83013120580133        1.73832253574329       -0.81641301021957
H            8.60759488717579        1.75924001211834        0.76307493503349
H            9.11423477069970        1.14471356373406       -0.83499007646590
H            9.99666209492402        0.65352925603366        0.63414778855615
H            7.10741531675577       -4.31944069530018        1.45010988179543
H            5.47732786589302       -3.62758783776615        1.63963798818633
H            6.04174438317019       -4.16690572233855        0.03322369881436
H            4.38232516616829       -2.48419849778768       -0.12573971602592
H           -0.35326021635121       -1.63580028826300       -1.68427154830773
H           -1.09562493162273       -1.27858806198154       -0.11191304015133
H            0.45617749828391       -2.12196507396147       -0.18438583599105
H           -4.71222609962235        2.80371096142450       -0.05115462254881
H           -3.87703408338468        2.94621081228949        2.86550587425861
H           -4.93080025126298        1.71739372607327        2.14958661341023
H           -5.46398788009191        3.39416048964712        2.22478828656516
H           -2.85022918587631        4.76333431491729        1.34146773108141
H           -3.23354447523253        4.75144080390752       -0.38744121049595
H           -4.49297512663429        5.11178287900564        0.78497380973788
H           -0.72130189729485        3.04925744333054        2.86954847571688
