72
 energy: 2.315656838065 xtb: 6.6.1 (8d0f1dd)
N           -1.51404291282580        2.83424446411573        2.26501230875095
C           -1.55126859686921        2.17690417938457        1.19644595730562
C           -2.73770324364899        2.07986150964519        0.28764536088923
C           -3.28610996280992        0.68040799381985        0.40229495183811
C           -4.21644323613783        0.28051606257867       -0.53475135811146
C           -4.70139363572224       -0.99577449537194       -0.57060978209673
O           -5.46593985728036       -1.38503919037332       -1.62556074884172
C           -6.21764086035349       -0.58312497934076       -2.50737936920512
C           -4.36863804648540       -1.91731508947909        0.46216994072721
O           -4.96303527527309       -3.15646583078528        0.45743736820406
C           -4.65914206586032       -4.07345248886695        1.48230466395453
C           -3.44143020744771       -1.51140646002243        1.40263944208892
C           -2.89256503120925       -0.23590156743305        1.35429291980004
C           -2.20153153353540        2.30692398808368       -1.15182562005023
C           -1.27726732929329        1.18978826690897       -1.66672080202299
C           -0.00266860822620        1.13336184289554       -0.90260758963950
N            0.61948761133921       -0.06153915924819       -0.55171283673505
C            1.99555520944817       -0.05301374473603       -0.16349912686051
C            2.92845909390097       -0.55408827630698       -1.29024291794403
C            4.35417811685163       -0.44516303683196       -0.85415393060504
C            5.06571742666883        0.72247449576621       -1.05211815583115
C            6.37525965687435        0.83609432244878       -0.61080926419333
C            6.99154760895799       -0.21652487526732        0.04231729786575
O            8.27378747925114       -0.22032483273797        0.50880013667986
C            9.06139969770826        0.92298311147035        0.30377790928913
C            6.26913624260668       -1.41132471213999        0.25843286985484
O            6.95713982121547       -2.39590595983201        0.90414728210793
C            6.32149986757813       -3.62802966212074        1.12325330621586
C            4.96413001857093       -1.50519914409353       -0.18342595262721
C           -0.06873100861553       -1.31792506277711       -0.62415243886750
C           -3.88751294370432        3.07067836473611        0.60688645332514
C           -4.51477876226951        2.76985201138793        1.96684442906830
C           -3.43167027280305        4.52524018548885        0.56114951839737
H           -4.54572811407033        0.94121364860394       -1.31381978364454
H           -6.75044767669834        0.29664443698933       -2.11006158772564
H           -6.92461491308545       -1.36216163701968       -2.75343300154085
H           -5.62102401938382       -0.31497924315251       -3.37290305016994
H           -4.90822542686098       -3.67868436862017        2.47608441680910
H           -5.27406818524791       -4.95363263127217        1.28443958831774
H           -3.60525849006279       -4.37416186483056        1.45859675571649
H           -3.11794015080778       -2.17934340334222        2.18845156810780
H           -2.16787666388065        0.04944650585668        2.09776326898194
H           -3.04126013345777        2.40199070636210       -1.84235765655594
H           -1.64967999442752        3.24690294976403       -1.16836049139636
H           -1.81513710624382        0.24412308083606       -1.60926182427358
H           -1.05453661027320        1.39235344298919       -2.72651698583952
H           -0.69154218631701        1.65037787975284        0.71769784475762
H            0.65614982146453        1.98366901444675       -0.98234037263327
H            2.12641199967237       -0.69240401089304        0.71889010764155
H            2.29020109372853        0.96622610455562        0.10544703029411
H            2.74992448387108        0.05933032124216       -2.17475590524445
H            2.67252666715523       -1.58762026351211       -1.52765080437498
H            4.60509230207702        1.55572783448998       -1.56157128865466
H            6.90701317574511        1.75687134512621       -0.78917538647465
H            8.64291585652054        1.80125741499397        0.80799583871304
H            9.18697487213791        1.14304650976684       -0.76164866823407
H           10.03177772259903        0.68822595376398        0.73920422637581
H            7.06234799354387       -4.25186174878545        1.62138001931279
H            5.44407934343443       -3.52423198195627        1.77164295940316
H            6.02328264268682       -4.10295990887512        0.18199540182989
H            4.40056369945813       -2.41276850269380       -0.02948865409019
H           -0.24464696202131       -1.63234202955460       -1.65969740779123
H           -1.03489714538544       -1.25611473410964       -0.11297450454925
H            0.54063336022497       -2.07238416404269       -0.12933949449004
H           -4.66010472431231        2.92997369193613       -0.16005210806953
H           -3.78216901167081        2.90576321441490        2.75600480070840
H           -4.88581194022590        1.74818785935723        2.00678996384077
H           -5.34577509375175        3.44827303345128        2.14308026094621
H           -2.64459377547988        4.68685651697341        1.28991160153993
H           -3.06977705052553        4.80110129910640       -0.42604836092131
H           -4.26936300453224        5.17338254473260        0.80827700254774
H           -0.63345683965649        2.83267954646054        2.77377927475773
