72
 energy: 19.527984672049 xtb: 6.6.1 (8d0f1dd)
N           -1.60358704200716        3.01785176560838        2.33829915850403
C           -1.60653886025281        2.23352531544113        1.35725516081493
C           -2.76903953256940        2.05187178591496        0.42425641299171
C           -3.28938384763522        0.62588090161339        0.53173492623069
C           -4.15704778451773        0.12114696910307       -0.43209535853878
C           -4.64765862808253       -1.16497232268792       -0.34626974750962
O           -4.89147821858185        0.59549097433034       -3.51893756337080
C           -5.85157384405101       -0.07026945371876       -3.83340912958959
C           -4.30169973239837       -1.98866802788852        0.72977975076394
O           -4.84376999068344       -3.24272799642956        0.73291914677776
C           -4.63192942237774       -4.06268959838984        1.85375673016301
C           -3.44662875904643       -1.49063471226452        1.70480354224903
C           -2.95145576646330       -0.20041604267422        1.59498645069206
C           -2.23277138138990        2.30862821391206       -1.00978723569401
C           -1.35886507711436        1.18837660568132       -1.60374414336185
C           -0.02586623239995        1.08044042349714       -0.97487770769707
N            0.54997931638761       -0.08627845929684       -0.55413894194529
C            1.93557146623461       -0.10525265519740       -0.18735971463485
C            2.86569427253676       -0.59494657693830       -1.31970420982842
C            4.29827724430574       -0.48506057181351       -0.89304384303523
C            4.99853276919478        0.69318916500909       -1.07326833415925
C            6.31458039419684        0.81254686844474       -0.64823442604307
C            6.95189796279074       -0.24762585637780       -0.02998203583069
O            8.23722142841110       -0.24940676282822        0.42274358041992
C            9.01982252968942        0.90182272632802        0.23251654173827
C            6.24474577724604       -1.45656753329704        0.16417000741662
O            6.95729993707868       -2.44598740472607        0.77385362661741
C            6.34698159067394       -3.69433888617235        0.98021979528350
C            4.93421457844974       -1.55576256098898       -0.26327717304967
C           -0.14731710588791       -1.34075116345141       -0.64688595754417
C           -3.96339890469103        3.00626426517827        0.71192993330588
C           -4.59458670781948        2.73293835167853        2.07646186744040
C           -3.59251357540455        4.48482617753679        0.60933896321675
H           -4.44491576507881        0.72544313695431       -1.27848496135146
H           -6.86964053211177        0.22545666043987       -3.56231857995075
H           -5.29930478898392       -1.53118410072312       -1.11931821659226
H           -5.77322870307197       -0.93947311254124       -4.50100969952484
H           -5.00235800835844       -3.59653716300379        2.77301931364587
H           -5.19987966933154       -4.96797260131874        1.65585768768136
H           -3.57313527249938       -4.31336414825462        1.98028614601481
H           -3.15864331255602       -2.09310737023802        2.55329887950182
H           -2.29521540119625        0.15853724181511        2.37319794226207
H           -3.08544175079866        2.44386299353169       -1.67493372423379
H           -1.65730111201756        3.23676970394682       -1.01071427688063
H           -1.90068314952612        0.24604649113846       -1.56589086915698
H           -1.22206992162527        1.44180610413337       -2.66322072325958
H           -0.72976951669404        1.64618021051001        1.04500997316271
H            0.59547541167349        1.95712408137018       -0.93273126060716
H            2.05841435452806       -0.75558177638885        0.68507160755816
H            2.23823303933762        0.90552723709758        0.09694652328472
H            2.68942097634076        0.02290217122327       -2.20229570216830
H            2.61897873444091       -1.62858882310341       -1.56838411240559
H            4.52474041065227        1.53219061964166       -1.56120091902559
H            6.83501283683530        1.74285665789124       -0.81196256580415
H            8.61126219890928        1.76413664716083        0.77038833080287
H            9.12192040383965        1.15073275312282       -0.82912053463778
H            9.99928055442931        0.65546665136987        0.63976225789600
H            7.10829129291778       -4.31173575977482        1.45486350543662
H            5.47964618733181       -3.61720239092477        1.64479166785897
H            6.04346472829764       -4.15824251383366        0.03566925760501
H            4.38885796431676       -2.47725752809112       -0.12513166218894
H           -0.35027358679467       -1.62883575025164       -1.68394926127062
H           -1.09961500537181       -1.28049039093631       -0.11364124534926
H            0.46350031524419       -2.11426680196487       -0.18611961133148
H           -4.71527728371537        2.78749617373378       -0.05439462372716
H           -3.87348659648721        2.92348935317726        2.86446077658858
H           -4.93614508678031        1.70307145188904        2.14891018660005
H           -5.45244267417445        3.38670762089697        2.21967826490943
H           -2.83711800831636        4.73102233186946        1.34883690625376
H           -3.22121128758720        4.73735908423268       -0.38019765057289
H           -4.47517279952267        5.09256118673878        0.79873570862454
H           -0.74305154984658        3.07105220430498        2.87874303288607
