72
 energy: 30.345908931011 xtb: 6.6.1 (8d0f1dd)
N           -1.60236303557691        3.05172868721539        2.36812208263152
C           -1.59535823414310        2.27934500446423        1.37585757239156
C           -2.75853579911669        2.08459519984948        0.44594230031533
C           -3.27816825644877        0.64364862002215        0.54515958374190
C           -4.18416688852639        0.17120323753330       -0.41547224377040
C           -4.72517420983403       -1.10979440013753       -0.46057041136873
O           -4.66567419285842        0.27689344447562       -3.08415451479072
C           -5.66073253676946       -0.26740569576076       -3.50301736366581
C           -4.36172237938220       -1.96018447586098        0.60879465979975
O           -4.83851021111599       -3.23615447097917        0.61670894448427
C           -4.63872141041848       -4.00640678191096        1.76152296997509
C           -3.48942765115291       -1.49265657706967        1.59878539003134
C           -2.93631938590008       -0.21770983538138        1.58102752992949
C           -2.21726109932638        2.32649985554048       -0.99218441065416
C           -1.36514003459515        1.18694880832235       -1.59159160294885
C           -0.03814921586118        1.07333544263129       -0.95259722087848
N            0.55943255586808       -0.09436366188802       -0.59613583336941
C            1.93334898812343       -0.10739714649574       -0.18710102326020
C            2.86067215724225       -0.60304245936931       -1.31940600430789
C            4.29539344895100       -0.49437146233207       -0.89645547602830
C            4.99386029129514        0.68494687896105       -1.07477062405805
C            6.31124020026444        0.80586731477752       -0.65104223966331
C            6.94949215967023       -0.25479282867016       -0.03328730672371
O            8.23503747321986       -0.25587086173167        0.42098186848655
C            9.01567583180068        0.89445028806149        0.22939079121125
C            6.24237701918304       -1.46438407891876        0.15894889203713
O            6.95503839113578       -2.45336275081460        0.76797339212847
C            6.34488450917500       -3.70020722798259        0.97595423474851
C            4.93280649066715       -1.56533495262042       -0.26898676488154
C           -0.14676499809011       -1.34245197445434       -0.65407512833430
C           -3.96426469152327        3.02949173650863        0.72238167704299
C           -4.60048551985281        2.74704093132613        2.08336879215903
C           -3.61316787645520        4.51049939329595        0.61057687337045
H           -4.48970342610162        0.86189804022296       -1.18241724032534
H           -6.65623013878348        0.11349984207664       -3.31411715679655
H           -5.37681577864175       -1.31719966510182       -1.40770833249312
H           -5.66980142566646       -1.18925053653381       -4.12388973379087
H           -5.02848892529192       -3.52055402419654        2.66028161734122
H           -5.20333892053717       -4.91207054022088        1.58939067338284
H           -3.58430980245602       -4.23965999775772        1.94013050799501
H           -3.22171972589537       -2.12886528867169        2.42710875842078
H           -2.28701044612731        0.08321949148574        2.39771078764041
H           -3.06633886962888        2.48495336507287       -1.65343060713547
H           -1.62365619374312        3.24473026737730       -0.99375673173225
H           -1.91242643856602        0.24748104070255       -1.55580591658626
H           -1.24639025250021        1.43074662249534       -2.66051624572786
H           -0.73100706141623        1.65165499729012        1.10528893997244
H            0.60071456879224        1.93596871906140       -0.89553975943208
H            2.06152120101892       -0.75093819140470        0.69015410654637
H            2.23819335753186        0.89920262193930        0.10217364628396
H            2.67564533524753        0.01544640729369       -2.19978839582554
H            2.60765461920315       -1.63572890304613       -1.56667932347967
H            4.52054344186455        1.52501938527972       -1.56114262167753
H            6.82778628759111        1.73737375703550       -0.81237718292666
H            8.60535413298596        1.75718754115837        0.76549617457895
H            9.11622345604728        1.14725112196051       -0.83171545726526
H            9.99773647688294        0.65596329942830        0.63892805733999
H            7.10346873523235       -4.31992016828218        1.45256164585377
H            5.47641244325393       -3.62132868610647        1.63970806108774
H            6.04208533400099       -4.16383096017886        0.03033024596306
H            4.38696621995267       -2.48715101215051       -0.13165245774289
H           -0.35382320560145       -1.62893115191032       -1.68759988145662
H           -1.09816126573525       -1.28014166664332       -0.11531795658910
H            0.44958149747853       -2.12514286481605       -0.18746514830106
H           -4.71037238121254        2.79452419574259       -0.04423268724008
H           -3.88312175338069        2.94188453247432        2.87366324870381
H           -4.93621058190210        1.71400035203647        2.14914862083931
H           -5.46267489885480        3.39424832589722        2.22648193368691
H           -2.86216469359554        4.76750773084565        1.34993042762556
H           -3.23669519495355        4.75283116663579       -0.37898511938598
H           -4.50245905289710        5.11206244504097        0.79149555196760
H           -0.71806704186497        3.05978341432254        2.87651831221359
