72
 energy: 60.466408694750 xtb: 6.6.1 (8d0f1dd)
N           -1.58365606556173        3.08468175067634        2.35544492615391
C           -1.58550901043294        2.28793802651835        1.38344133579769
C           -2.74554879355856        2.10256624995845        0.44582292714429
C           -3.26660602345112        0.67593266082420        0.57377108817031
C           -4.18249540412971        0.23327236360123       -0.38963171238756
C           -4.72270232118269       -1.03999075390252       -0.49911000228755
O           -4.53724526758656       -0.08769462326079       -2.82065416622586
C           -5.60313901374085       -0.39125216463238       -3.33261065674702
C           -4.34175353951793       -1.93155093996243        0.54735881612642
O           -4.82374354866151       -3.21691113784680        0.57170424937563
C           -4.64387355394772       -3.97343908589162        1.74579054988743
C           -3.50909038955349       -1.46564223422390        1.55732422183764
C           -2.96215444300475       -0.19051588507111        1.59289346006451
C           -2.21394055101741        2.33783145933201       -0.99632770212428
C           -1.36389660716992        1.20243029682905       -1.59168732227188
C           -0.03819790163532        1.08418317443898       -0.94860679406862
N            0.55675477280188       -0.08840010654821       -0.59212734974794
C            1.93626460210005       -0.11352890420968       -0.18921052612274
C            2.87023571939179       -0.59837031282269       -1.32228066035716
C            4.30456607483686       -0.48953230895941       -0.89523061407923
C            5.00583427561753        0.68858714617595       -1.07425764290554
C            6.31979713205460        0.80753090223208       -0.64539078216483
C            6.95984575054051       -0.24936570666559       -0.02176036174044
O            8.24261225828613       -0.24761626172437        0.43734480002163
C            9.02445178800740        0.90196154910317        0.24151845249128
C            6.25186884209162       -1.45731763055683        0.17350178974444
O            6.95671116504809       -2.44328239049467        0.79302489235685
C            6.33958869176316       -3.68595861953690        1.00513105933140
C            4.94200752346663       -1.55470286862963       -0.25651297575323
C           -0.15307962189424       -1.34125043985633       -0.64566491793381
C           -3.95049109522542        3.04255056303232        0.71062249079906
C           -4.58773045459355        2.75115934253946        2.06506348537923
C           -3.58034284242415        4.51676828913103        0.60789942524837
H           -4.44894491702063        0.95585791875302       -1.13647552947775
H           -6.42549475864271        0.28855908758576       -3.28593921273182
H           -5.50935958686310       -1.29060188895862       -1.57758462776400
H           -5.65624942831434       -1.10940215128533       -4.15838687060356
H           -5.02710621453196       -3.47316096511229        2.64583014940111
H           -5.21190938808272       -4.89077991652785        1.58223577417607
H           -3.59227553012424       -4.26132233204234        1.86792535873617
H           -3.29125677975390       -2.11595740672083        2.38025043135912
H           -2.32541312037152        0.10634523455095        2.41741695923885
H           -3.06693476930682        2.47511511133517       -1.66402440491036
H           -1.62673474853587        3.25790963795850       -1.01486715770239
H           -1.91991031367402        0.26792354484553       -1.55026168964816
H           -1.23557506407590        1.45637148121406       -2.65490938141471
H           -0.73161621837778        1.65988795609465        1.04843563762334
H            0.59971892803339        1.95213411201164       -0.92878709226525
H            2.06347424275126       -0.76862135732738        0.68257519762016
H            2.24725816561627        0.89595802069377        0.10026995634702
H            2.69123827400209        0.02168689944357       -2.20278770172771
H            2.62346969779816       -1.63115565657335       -1.57383098837310
H            4.53719585735367        1.52957217306202       -1.56266907001291
H            6.83883246414601        1.74019232274549       -0.80370478462129
H            8.61201778991647        1.76504427347359        0.77482314538129
H            9.12960664635930        1.14773416919358       -0.81951309274293
H           10.00527578144052        0.66493851711551        0.65625362301833
H            7.09247566376161       -4.30841005695204        1.48687794967073
H            5.46913818061266       -3.60073141974950        1.66584292003922
H            6.03776809705978       -4.15034067151251        0.05994288777990
H            4.39395157068294       -2.47412204393404       -0.11715085943922
H           -0.35172386639905       -1.63129756486503       -1.68185688051355
H           -1.11050709168362       -1.28529063208484       -0.11666144238083
H            0.45856727458214       -2.11214380681444       -0.17838337092075
H           -4.69439764047771        2.81664423032673       -0.06265603751917
H           -3.87458817167641        2.92971112508425        2.86383897924825
H           -4.93155005073545        1.72072013783176        2.11909538017634
H           -5.44149792148976        3.40570733655131        2.21247825318620
H           -2.82344396962324        4.75075972651542        1.34840525358872
H           -3.20354175898308        4.75990769688590       -0.38235144838629
H           -4.45908072899054        5.12796584882667        0.79979119955532
H           -0.73367432085832        3.11632599432990        2.91379248133401
