72
 energy: -4.893451371296 xtb: 6.6.1 (8d0f1dd)
N           -1.49889059470595        2.79088355719141        2.24486884964799
C           -1.55051630890252        2.15954478238919        1.16107771342972
C           -2.74368931380497        2.06629628754042        0.25770134771049
C           -3.30555878438369        0.65935465398110        0.35078513404497
C           -4.27423912130750        0.25925426851627       -0.56283391818442
C           -4.80120689362003       -1.01029240633212       -0.54125707151503
O           -5.71328519095012       -1.45288091380035       -1.44656959149706
C           -6.33511069725728       -0.59623761583233       -2.36437672532728
C           -4.39156833132110       -1.93238492877490        0.45354727912714
O           -4.98336605789528       -3.16293484485859        0.42687718213586
C           -4.66216168583527       -4.09103086163461        1.43280363501191
C           -3.42857340249798       -1.53246347520469        1.35893315410922
C           -2.88883990759142       -0.25218442192041        1.30165383880458
C           -2.19763477150107        2.30235955607771       -1.17523209548254
C           -1.26610897057993        1.18238780696997       -1.66779674346320
C            0.00272538547390        1.13022951136022       -0.89590292856809
N            0.63063609320059       -0.05076804553807       -0.55894361447960
C            2.00048241513705       -0.03833950069107       -0.15936853575281
C            2.93295048811624       -0.54464019670235       -1.28204874165410
C            4.35753624891174       -0.43699868611262       -0.84282966696579
C            5.07240060826829        0.72843084792046       -1.04548512097760
C            6.38259832426382        0.84050614941234       -0.60534178485665
C            6.99487958721956       -0.21136828576631        0.05230751614425
O            8.27469854117266       -0.21435205801150        0.52174202328513
C            9.06629623027323        0.92626592503427        0.31449321211226
C            6.26954880079258       -1.40421615938025        0.27270052908908
O            6.95428026826600       -2.38734252150484        0.92207047214246
C            6.31821887014904       -3.61909216201064        1.14316053821911
C            4.96475547577187       -1.49741694980148       -0.16979475223163
C           -0.05565131445350       -1.30796143133327       -0.62152912100709
C           -3.87528899255937        3.07518911167419        0.59094118071468
C           -4.50121140121602        2.77332908517690        1.95143489989466
C           -3.40605048520122        4.52763358911909        0.55266265277719
H           -4.62115758156513        0.94571704450428       -1.31538539166628
H           -6.82103270915788        0.27445930413095       -1.90760165445719
H           -7.09545491356800       -1.24852229594761       -2.77692587648470
H           -5.64923357779571       -0.28015536687762       -3.15201977634783
H           -4.89094541276219       -3.70368794110255        2.43223104386893
H           -5.28520888402400       -4.96314636693975        1.23544768522799
H           -3.60876160310055       -4.38994142774955        1.38974463486220
H           -3.08490556492059       -2.20572226019833        2.12960448099845
H           -2.15271124243766        0.03206304325488        2.03671186472535
H           -3.03188546783034        2.38931117821846       -1.87215887708694
H           -1.65143900057796        3.24670331433771       -1.19185883685296
H           -1.80500686498047        0.23727073081464       -1.62155589447836
H           -1.02180719616840        1.38311366698417       -2.71945132676739
H           -0.68676138730395        1.65149945955624        0.66348437739534
H            0.64914009009399        1.98956430284469       -0.95487813993375
H            2.12164287426269       -0.67331230021164        0.72582394228374
H            2.29838860402932        0.97934191007713        0.10895870479081
H            2.76009859408845        0.06516046858147       -2.17056201231621
H            2.67704490366295       -1.57890629647189       -1.51700961076803
H            4.61568453398307        1.55994170349742       -1.56159990191071
H            6.91825124132751        1.75785234706141       -0.78944027959740
H            8.64838888045896        1.80738027662809        0.81384760719675
H            9.19638605442869        1.14102004050631       -0.75160253147139
H           10.03408627725356        0.68993605140706        0.75416113398130
H            7.05839690180757       -4.24148885647708        1.64383343275036
H            5.44027241635978       -3.51333064687713        1.79021146700986
H            6.02178323552603       -4.09689510453540        0.20290216513718
H            4.40085741294410       -2.40447748485412       -0.01382211431680
H           -0.22920013109961       -1.62578240757378       -1.65592044552758
H           -1.02186338407981       -1.24740387714710       -0.11046060551597
H            0.55458799170902       -2.05884191316104       -0.12496630782105
H           -4.65036840690043        2.94865284239606       -0.17484935335874
H           -3.76603482229397        2.90322786628216        2.73910940628696
H           -4.87783044522434        1.75381528426696        1.98840660981513
H           -5.32937284887438        3.45443167595917        2.13115128621801
H           -2.61429621962356        4.68628671893964        1.27808588602516
H           -3.04949234331561        4.81133925177496       -0.43443808918041
H           -4.23855836541837        5.17937473667097        0.80758242033113
H           -0.60881384691175        2.78795685503052        2.73953034456769
