72
 energy: 97.149671087013 xtb: 6.6.1 (8d0f1dd)
N           -1.57238949060206        3.05242380812285        2.34685606773076
C           -1.56960868161041        2.29062778827978        1.35204685971129
C           -2.73122914708256        2.12672048835671        0.42966403320884
C           -3.24793378692103        0.72897718905275        0.61480258111596
C           -4.12718152480232        0.32565542944326       -0.36140627753272
C           -4.52903974624750       -0.95194520328246       -0.55914811098503
O           -4.50061424657979       -0.45066315813578       -2.45833803290084
C           -5.75072950031172       -0.61660938601460       -3.07695546729663
C           -4.29955714534561       -1.91250504623946        0.48423346812712
O           -4.81687717699093       -3.19001194597715        0.53188312978608
C           -4.64245312177014       -3.97689322101552        1.70629590512011
C           -3.52525179871610       -1.44098148513369        1.53545933078851
C           -2.93794367025545       -0.18535207008022        1.58156233321897
C           -2.21107476475699        2.33626792894381       -1.02061940773596
C           -1.35132790171343        1.19808047401776       -1.60321701575294
C           -0.01927984587460        1.07666440008173       -0.98044201486339
N            0.55357952247414       -0.08195313772366       -0.56583077417628
C            1.94363592971913       -0.10413772819299       -0.18713738413912
C            2.87894787581800       -0.59123604204826       -1.31992775949492
C            4.31421647833913       -0.48292858757462       -0.88907583468410
C            5.01734418069257        0.69262238899735       -1.07178438579629
C            6.33058873989856        0.81115780587340       -0.64010839390547
C            6.96740657976659       -0.24494769582826       -0.01141777714719
O            8.24913766362434       -0.24442256198831        0.44864130026191
C            9.03143384664856        0.90476806936728        0.25236301550734
C            6.25747791030492       -1.45110149709654        0.18651517889118
O            6.95817445984816       -2.43652893882342        0.81129819769484
C            6.33672059604523       -3.67684173750555        1.02428311364709
C            4.94772714649872       -1.54689417034930       -0.24559109708101
C           -0.14474436391400       -1.34372536948692       -0.64088333696506
C           -3.94081231448571        3.05484170425709        0.69461539919456
C           -4.57671085046236        2.75512149358828        2.04875786655771
C           -3.55740660880773        4.52255575229421        0.60133287903688
H           -4.38040901507992        1.01491726959733       -1.13911940613091
H           -6.38206418530923        0.31575702377938       -3.14155316504977
H           -6.01070855035511       -1.31122995799868       -2.24655110718651
H           -5.64471662387874       -0.96945459126942       -4.12027504000556
H           -5.00710988956297       -3.50276000403193        2.64013808923576
H           -5.21693926101330       -4.89277251265209        1.53074996410329
H           -3.59192812564376       -4.27886375571057        1.80363118653601
H           -3.34898933647027       -2.08132140235854        2.38120490625791
H           -2.27884309215225        0.09321904076726        2.38507043475127
H           -3.06406982293009        2.46410412955101       -1.69157283100341
H           -1.63007996233197        3.25877235638797       -1.04203418672994
H           -1.90665291010319        0.26364137173914       -1.55681067221457
H           -1.21265662039815        1.44547199316652       -2.66975312255713
H           -0.72583814602906        1.65875313848689        0.99637455011641
H            0.61057027613805        1.95125422475083       -0.95944388731258
H            2.06482820420575       -0.76520836157313        0.67827637888748
H            2.25312990102843        0.90631291217063        0.10173964186925
H            2.70266422623505        0.02806162770680       -2.20142360956007
H            2.63503797306534       -1.62453241228010       -1.57123154166760
H            4.54961016601484        1.53260559099301       -1.56239608795037
H            6.84962052088261        1.74347467415227       -0.79870893739490
H            8.61739371440060        1.76945761614174        0.78181589309685
H            9.13912982001360        1.14699372202189       -0.80932686295104
H           10.01121696098824        0.66981693541435        0.66956824017541
H            7.08654510653664       -4.30049943256254        1.50906145728673
H            5.46488163452266       -3.58767668989168        1.68259124791665
H            6.03545082217283       -4.14209974383156        0.07944663748759
H            4.39593047171588       -2.46344942178903       -0.10362401903899
H           -0.33378975843081       -1.63512187709767       -1.67781285772544
H           -1.10238323110955       -1.28468102606666       -0.11798492052466
H            0.46921189117023       -2.11227001821551       -0.16864383565684
H           -4.68766650668952        2.83569890293402       -0.07840523397193
H           -3.86023769584081        2.92419964594214        2.84633365122405
H           -4.92527169687391        1.72602528486816        2.09911491384543
H           -5.42600176616664        3.41342332673182        2.20254040103327
H           -2.79508169254451        4.73588654883106        1.34183603529878
H           -3.18088870081555        4.76595621518016       -0.38874230910841
H           -4.42793542457720        5.14014938557939        0.80326722596152
H           -0.72966264176371        3.07711111901404        2.91547764522302
