72
 energy: 19.269803166449 xtb: 6.6.1 (8d0f1dd)
N           -1.60447464500843        3.00523181888072        2.33797673400249
C           -1.60072833069352        2.23402250337021        1.34713327475581
C           -2.76777997970859        2.04490423371570        0.41931494183179
C           -3.27779710460448        0.61824272433336        0.54158152640352
C           -4.15470873157822        0.10601018152068       -0.41302011340173
C           -4.64126805640713       -1.17589197628029       -0.30631222762541
O           -4.92006429438513        0.54667461245215       -3.44792478148722
C           -5.88846329309576       -0.02937405227828       -3.89693145832899
C           -4.28591508153632       -1.99444020860249        0.76431256953263
O           -4.83455546115000       -3.24400911693058        0.75705791131682
C           -4.62578455433749       -4.07988897006840        1.86647130699193
C           -3.42524297382342       -1.49190538734314        1.72915032079752
C           -2.93248452552394       -0.19952996150734        1.60753782575542
C           -2.23629213629752        2.29991534527469       -1.01696496340509
C           -1.35598434224593        1.18347562696734       -1.60755847091704
C           -0.02785037954626        1.08064889852528       -0.96545142372697
N            0.55644665479691       -0.08639761299467       -0.56186181439603
C            1.93938389122796       -0.10240763803733       -0.18540120196883
C            2.86952864157457       -0.59203493069148       -1.31804594815165
C            4.30249971060998       -0.48333381421530       -0.89069960512373
C            5.00299034413004        0.69492764273278       -1.07124619111195
C            6.31831612617283        0.81461531273890       -0.64510877496257
C            6.95327605118918       -0.24635914916201       -0.02522414518510
O            8.23754255678690       -0.24784368915072        0.42861503773882
C            9.02172415561975        0.90158735790496        0.23813908539322
C            6.24554639877845       -1.45491060005031        0.16961676502089
O            6.95532403295068       -2.44298612886995        0.78188178587600
C            6.34597276595009       -3.69073029786021        0.98885109157557
C            4.93512527010386       -1.55440639782576       -0.25900090538966
C           -0.14226341002937       -1.34011516206847       -0.64543704579655
C           -3.96139798980716        3.00094007671056        0.70418497590232
C           -4.59214029199360        2.72828306270869        2.06876836192695
C           -3.58329166499362        4.47753039409899        0.60469791109283
H           -4.45915683403487        0.70310788198321       -1.25724537139321
H           -6.91986881885310        0.26008143523696       -3.64557517232970
H           -5.31014472622473       -1.57886442623761       -1.04444183813946
H           -5.81023018714006       -0.87950852359146       -4.59323527530525
H           -4.99272785538510       -3.61926237421337        2.78960513408822
H           -5.19801791924554       -4.98386581080054        1.66273491982083
H           -3.56893798513405       -4.34177553344685        1.98561970750607
H           -3.13321104081634       -2.08641253504889        2.58100485931714
H           -2.27675837017151        0.17398599803399        2.38063076567588
H           -3.08812192071049        2.43133673896233       -1.68392950663362
H           -1.66395946192023        3.22942464734363       -1.01548693848624
H           -1.89725078369549        0.24052041147677       -1.57078936568653
H           -1.21488525780210        1.43593431126214       -2.66827065175725
H           -0.72564493659383        1.64621036330741        1.02380694116442
H            0.59951165342414        1.95451015259765       -0.93795413135384
H            2.06322907000752       -0.75293045709012        0.68696350056685
H            2.24290851527795        0.90774687082604        0.10027464707166
H            2.69241655391159        0.02676339011794       -2.19941174718298
H            2.62081768110175       -1.62496685543588       -1.56561226180207
H            4.52941065188042        1.53368179418114       -1.55944890455546
H            6.83901670343337        1.74477116356558       -0.80853491149414
H            8.61441555087558        1.76529618875784        0.77482052023818
H            9.12589148857348        1.15014495994219       -0.82342008566458
H           10.00054470052859        0.65456486646559        0.64673486487851
H            7.10647089696210       -4.30816012323804        1.46496376902677
H            5.47762228057970       -3.61421058932249        1.65232922749874
H            6.04280274904797       -4.15663257156463        0.04500188173870
H            4.38721961975352       -2.47395166548675       -0.11958130492123
H           -0.34502271929861       -1.62977974276292       -1.68170765082218
H           -1.09409246468714       -1.27878796596108       -0.11124550553612
H            0.46636769381508       -2.11345891698943       -0.18185842037341
H           -4.71491318406946        2.78831344692165       -0.06325656904207
H           -3.86908605305185        2.91799456934051        2.85531621495771
H           -4.93478960852799        1.69890519495966        2.14196791600815
H           -5.44732363242665        3.38448829096671        2.21377156815727
H           -2.82714753588485        4.71868424858568        1.34513737893390
H           -3.21077847791466        4.73216345758404       -0.38369316933289
H           -4.46250016570665        5.08806577317788        0.79787427367469
H           -0.73736603016273        3.05471807456005        2.86952466468803
