72
 energy: 14.890331814521 xtb: 6.6.1 (8d0f1dd)
N           -1.52769223740781        2.87831222956447        2.28251775454805
C           -1.55063891878513        2.19663507380827        1.22887628031334
C           -2.73281171087821        2.09333086331828        0.31757410016395
C           -3.27111387066036        0.69958256703474        0.45226522427268
C           -4.16439549293225        0.29719898850258       -0.50606663724075
C           -4.60232876945387       -0.99039346360098       -0.61815439327209
O           -5.17004427551665       -1.29666094433364       -1.82602820782203
C           -6.10047715514532       -0.57621737831963       -2.64650946927069
C           -4.34013062520857       -1.91616661325802        0.43842106811386
O           -4.94085970625008       -3.15680910931040        0.47934683167638
C           -4.65563929970623       -4.05539447231626        1.52987455252738
C           -3.46117654357130       -1.49303344035335        1.43212025461267
C           -2.89990290955550       -0.22381665017720        1.40417762219854
C           -2.20489167983124        2.31271790111279       -1.12680046972745
C           -1.29349516748960        1.19374477292905       -1.66254963182970
C           -0.00366128130964        1.12262030793737       -0.93199747214187
N            0.60103947366523       -0.07031645017648       -0.55016680877990
C            1.98484365916995       -0.06665631301767       -0.16938779695239
C            2.92094919921409       -0.56254832843387       -1.29826992974834
C            4.34812188394747       -0.45306807617534       -0.86425334957794
C            5.05762217413236        0.71649045818242       -1.05804462923139
C            6.36708201628943        0.83154405369882       -0.61708387601393
C            6.98733134729308       -0.22176109262795        0.03171049324696
O            8.27136383904501       -0.22588247339468        0.49564610680711
C            9.05591454632331        0.91961175371036        0.29312066911918
C            6.26767984820618       -1.41855483962035        0.24384924896423
O            6.95895753103133       -2.40424941005991        0.88584750410577
C            6.32462812139384       -3.63701475697033        1.10349494878681
C            4.96219801962095       -1.51303151998919       -0.19669977202940
C           -0.08438588340932       -1.32736331211146       -0.62875106514991
C           -3.89861430809481        3.06707139258340        0.62403252034577
C           -4.52748861629765        2.76620550112833        1.98286504465587
C           -3.45764646335815        4.52424650305978        0.56953481963285
H           -4.46970073195453        0.94150485577407       -1.30559390582145
H           -6.66464307452897        0.31716470392588       -2.30932398309840
H           -6.75404324723380       -1.41796437834406       -2.69425242483308
H           -5.60901354667968       -0.37874678193572       -3.58791976908968
H           -4.92583342288450       -3.65092270346925        2.51674496511805
H           -5.26315781864642       -4.94332069759910        1.33373892483153
H           -3.60208667019120       -4.35819893280481        1.52683487012179
H           -3.15915346250212       -2.15221892421121        2.23783165675010
H           -2.18745548653467        0.06211144635067        2.15855475159647
H           -3.04898055982800        2.41614000695421       -1.81201578911758
H           -1.64643166926060        3.24820009751055       -1.14368136272845
H           -1.83109172106933        0.24797984543125       -1.59877319270317
H           -1.09326834402346        1.40247842662607       -2.72866215892413
H           -0.69654585174791        1.64934732663423        0.77270804917938
H            0.66274874619362        1.96947512651953       -1.01136068578936
H            2.12458436023374       -0.71215310097527        0.70895084681633
H            2.27976091857155        0.95271710032960        0.10354278881395
H            2.73990133190368        0.05387596107495       -2.17983802637943
H            2.66650114177268       -1.59558670234738       -1.53821447377174
H            4.59426394154593        1.55126479593932       -1.56218187806786
H            6.89546050405395        1.75537882690631       -0.79026875750517
H            8.63742425493799        1.79523459965577        0.80213684768411
H            9.17763121264597        1.14475773647282       -0.77159023921718
H           10.02857194272154        0.68594832565541        0.72469152309998
H            7.06655089705008       -4.26163294519760        1.59919883080347
H            5.44790532144035       -3.53554864370855        1.75344227551412
H            6.02516918106816       -4.10965303550849        0.16142162432505
H            4.39976625669067       -2.42165725032564       -0.04481522195074
H           -0.26155659404842       -1.63888200249664       -1.66491498302849
H           -1.04907704503541       -1.26496054822849       -0.11559345518607
H            0.52637387510111       -2.08317411720184       -0.13586259584705
H           -4.66741111382392        2.91036819750983       -0.14438640661081
H           -3.79787327557387        2.90890930999318        2.77359937504384
H           -4.89298095210711        1.74244659915406        2.02518379279589
H           -5.36202696966268        3.44098361756105        2.15492275841364
H           -2.67561144196805        4.69229144147351        1.30145779499815
H           -3.09147416059587        4.79267613968551       -0.41803703044378
H           -4.30148504928185        5.16725152501841        0.80817693213457
H           -0.65382961978733        2.88195503289507        2.80110197925924
