72
 energy: 7.975189251785 xtb: 6.6.1 (8d0f1dd)
N           -1.52090726060155        2.85619804784758        2.27359683731470
C           -1.55092924922058        2.18623702168517        1.21274393746241
C           -2.73507521370014        2.08664227638070        0.30260703421814
C           -3.27800555906279        0.69031995109413        0.42737629335036
C           -4.18915059259031        0.28985473383345       -0.52099296380722
C           -4.65099236368587       -0.99176502790276       -0.59286458558888
O           -5.32434606776039       -1.34626757104973       -1.72384465382469
C           -6.15700874070995       -0.57807949486881       -2.57914859001717
C           -4.35486437692542       -1.91545170982698        0.45065032364319
O           -4.95247142123039       -3.15610397144096        0.46853693621862
C           -4.65744490324119       -4.06424063076765        1.50600929600069
C           -3.45112829476295       -1.50215664812746        1.41796718889919
C           -2.89614367897310       -0.22968795725119        1.37948298847387
C           -2.20327962081869        2.30979396274412       -1.13945271319699
C           -1.28539296339765        1.19198168076940       -1.66516478866944
C           -0.00343960527153        1.12840391900774       -0.91751968551463
N            0.61031332336147       -0.06761697283464       -0.54899901297968
C            1.99047265150660       -0.06024930837151       -0.16619277067334
C            2.92492495765314       -0.55837690739953       -1.29425255837029
C            4.35131222989877       -0.44907514314814       -0.85925179674681
C            5.06177350582677        0.71951384772913       -1.05511638511723
C            6.37125310805930        0.83384506038802       -0.61392757264882
C            6.98951683463375       -0.21912408498636        0.03700493734502
O            8.27266549625011       -0.22314272085818        0.50218468310263
C            9.05872862291220        0.92129126057810        0.29840415181071
C            6.26850822328182       -1.41490769899018        0.25111942662396
O            6.95815708202139       -2.40008696612222        0.89498544390892
C            6.32305942422483       -3.63247972817708        1.11333989851765
C            4.96328167355809       -1.50905493546351       -0.19011490401303
C           -0.07668376643805       -1.32340099650154       -0.62625426517418
C           -3.89312029276426        3.06880801358497        0.61537310190041
C           -4.52117778234327        2.76804945492286        1.97480864390102
C           -3.44462547693054        4.52465885697294        0.56533913486972
H           -4.50732340382630        0.94085583592106       -1.31124498809485
H           -6.70978473029805        0.30577003361714       -2.21013781675817
H           -6.83124171035011       -1.39723679255866       -2.74514935255840
H           -5.61002690930647       -0.33983161354140       -3.48172204387511
H           -4.91698156891820       -3.66494137161200        2.49655495531583
H           -5.26845453142476       -4.94855645862666        1.30903180905267
H           -3.60361306153109       -4.36594965659439        1.49260384491860
H           -3.13841316276453       -2.16589865029775        2.21373493574991
H           -2.17748874916669        0.05597771633834        2.12832703625329
H           -3.04524878541575        2.40921676928048       -1.82728026420960
H           -1.64806784459346        3.24748059563123       -1.15608521946525
H           -1.82293166086084        0.24623285770317       -1.60392655350021
H           -1.07401521909951        1.39730937823482       -2.72847597804663
H           -0.69418845445743        1.64935005836101        0.74511423974877
H            0.65939403497604        1.97710086345717       -0.99686181183846
H            2.12643842516091       -0.70241025051526        0.71428708272443
H            2.28479281792291        0.95932304797643        0.10444821583785
H            2.74484398943215        0.05673104773749       -2.17708617448985
H            2.66965420535339       -1.59162618631212       -1.53299384122792
H            4.59970780581311        1.55354278633307       -1.56180512761070
H            6.90130395540071        1.75616671264818       -0.78968925198528
H            8.64021185321775        1.79822838905090        0.80503903248611
H            9.18234347538382        1.14394055443049       -0.76666068637225
H           10.03027861109377        0.68712033149231        0.73186853702180
H            7.06438283089053       -4.25678220652892        1.61025832599780
H            5.44597576286498       -3.52977582342221        1.76248759853902
H            6.02415432370658       -4.10622443920220        0.17167044606160
H            4.40020474731876       -2.41710324580043       -0.03718627322302
H           -0.25294334813708       -1.63583942425333       -1.66233875836023
H           -1.04219265106081       -1.26085757798772       -0.11434247743987
H            0.53329034026508       -2.07845481579377       -0.13240495056625
H           -4.66396034520327        2.92025922767839       -0.15227543159061
H           -3.79002114295139        2.90736227485496        2.76474780182528
H           -4.88941486179503        1.74532934073809        2.01601857655142
H           -5.35391893431164        3.44469444284043        2.14899823134561
H           -2.66005705268363        4.68912143824645        1.29573143891444
H           -3.08047173913594        4.79674235042585       -0.42202103799628
H           -4.28531731155367        5.17038735902917        0.80824592310404
H           -0.64393884349462        2.85705831042462        2.78766459395548
