25
 energy: -42.498679067204 xtb: 6.6.1 (8d0f1dd)
C            3.17591205234719        1.30470000085678        0.08038509370247
N            2.26602277981790        0.18946935483304        0.03142755374997
C            2.62799887386290       -1.10096462921663        0.02179576612633
N            1.45265987319063       -1.80304287824951        0.00132996174424
C            0.38212995837653       -0.96360181270066       -0.00655042242110
C            0.88625733000766        0.31826312059027        0.01609925462970
C            0.02859153858841        1.46871045846670       -0.00290460890001
O            0.36723100962477        2.63553641455542       -0.00130155362601
N           -1.32406540621682        1.09802880037221       -0.03123211745485
C           -2.31144207222196        2.16878936548565       -0.04862199324309
C           -1.85074579572179       -0.17884328403380       -0.04940789262874
O           -3.04456535134497       -0.37572649091979       -0.07535009666606
N           -0.94922664218455       -1.23866382154930       -0.03820321093456
C           -1.44973582587047       -2.59724859563533       -0.06160491388880
H            3.65395020561685        1.35783110698013        1.05970168546255
H            3.95068971798397        1.18323648409983       -0.67513574826497
H            2.62453501454455        2.22676507229120       -0.09681172186375
H            4.38071066070297       -3.38282787747498        0.06115720737039
H           -1.77643814162848        3.11529025400590       -0.02311155551780
H           -2.91772952430123        2.10240121522495       -0.95168462799792
H           -2.96834759136663        2.08242922820951        0.81634501958802
H           -1.12946046491732       -3.13914445827642        0.82983662988263
H           -1.10157023950199       -3.11881421559114       -0.95479914357758
H           -2.53741269743409       -2.54137103602871       -0.07782742471243
H            1.42708025378332       -2.80869388143397       -0.01031516937711
