25
 energy: -42.192134364802 gnorm: 0.006931196370 xtb: 6.6.1 (8d0f1dd)
C            3.28895315036790        0.92780613364511        0.08933349873758
N            2.37691103606066       -0.04127598514732        0.02371300180754
C            2.58811784270540       -1.36834963177004       -0.11786268975842
N            1.38840200799385       -2.03836163931802       -0.13192247928495
C            0.39736985071630       -1.14360494250310       -0.00069721624032
C            0.98939316288927        0.13134041281915        0.07170387316736
C            0.18801291944724        1.26548425930106        0.02774284427240
O            0.63515892017246        2.51070845509888       -0.07199056008152
N           -1.15858212875208        1.06449469146068        0.04717298486623
C           -2.07305498388526        2.19618518487826        0.01529763337937
C           -1.78193487137951       -0.19043045135889        0.07079774069234
O           -2.97434997747488       -0.29176997669546        0.10630375490702
N           -0.94547989269156       -1.31240871951436        0.03148532005468
C           -1.54195433916519       -2.63389334164983        0.01157204516945
H            3.06031682869772        1.88453326635849        0.51311893336376
H            4.31325115474584        0.67627242386630       -0.06524354127401
H            1.59952714512081        2.51712170585078       -0.22315210781134
H            3.54627163257887       -1.83075057432940       -0.20218523907039
H           -1.50257897170571        3.11889096369718        0.02328819584355
H           -2.68891625925319        2.14122593245357       -0.88215279537185
H           -2.73210736333209        2.15159918490808        0.88172992242675
H           -1.20900777234394       -3.21138461469564        0.87449234651160
H           -1.28294116012167       -3.15588176183299       -0.91011892220941
H           -2.62263029559906       -2.50998706600822        0.05970721629170
H            1.30228387830784       -3.03932536791428       -0.21096214248910
