25
 energy: -42.118787184019 gnorm: 0.003509598990 xtb: 6.6.1 (8d0f1dd)
C            3.56664833371408        0.85581700817560        0.04006828671998
N            2.58106046960182       -0.19154518898808       -0.00126391626432
C            2.79422604211373       -1.49639113302420       -0.06775311730332
N            1.61455704249708       -2.15470565470587       -0.06198853059249
C            0.61012656855824       -1.22590402301903        0.01034978050715
C            1.23043622802366        0.01680400406464        0.04893643593074
C            0.41827270474609        1.25367898208942        0.08097509189035
O            0.91745132398017        2.35906943850308        0.08464669425503
N           -0.89613640239359        0.98524227430719        0.09083670683171
C           -3.86105167219398        3.18694531401195       -0.10156052087207
C           -1.53218026308841       -0.17605637307284        0.07559623445647
O           -2.72762952642668       -0.31504968235874        0.08629320501334
N           -0.71160808344896       -1.39369505190132        0.03448580198372
C           -1.35627258700990       -2.68406890065733        0.01963113275668
H            4.00656746852396        0.91959509565977        1.03645930543389
H            4.35518938791706        0.66657453096211       -0.68517683849838
H            3.06967579826055        1.80209834706081       -0.17789955865954
H            3.75609026336685       -1.96774114003418       -0.12329055663097
H           -3.10014438328410        3.94311438129834       -0.09448690148091
H           -4.19470761223641        2.76681496667553       -1.03062734052813
H           -4.27428019566539        2.82950398198854        0.82140416623444
H           -1.05692869080944       -3.27565355522823        0.88617117957658
H           -1.12558985061087       -3.22477285311536       -0.89975781188731
H           -2.43041609160100       -2.50314782369355        0.06494127608159
H            1.50707524158455       -3.15828840342333       -0.10581858707843
