72
 energy: -99.409658447370 gnorm: 0.003468277463 xtb: 6.6.1 (8d0f1dd)
N           -0.83616364963730        2.47422097371955        1.74416378630084
C           -2.05212692384216        2.16595805756301        1.79939604740852
C           -2.87355370872078        1.89552778601893        0.56791757917853
C           -3.37345958315812        0.46060473414805        0.57107430448029
C           -4.28059629390468        0.04155667474227       -0.40424100907205
C           -4.76812773518391       -1.25414058697844       -0.43357054757722
O           -5.65170987957790       -1.73461287897571       -1.33324192668873
C           -6.19662051103396       -0.86384857833469       -2.29567838523722
C           -4.33125538186636       -2.18776974343653        0.54416772285361
O           -4.86625082688577       -3.42277969737043        0.44740780641537
C           -4.55624027322382       -4.38293217030249        1.42952368772485
C           -3.41259118147382       -1.77343670664258        1.49520651572623
C           -2.93944658268856       -0.46766706508536        1.50540562205917
C           -2.06550754944494        2.18097879841563       -0.72152660891164
C           -1.23887829015009        1.02512352696117       -1.28567464022368
C           -0.06694509564433        0.62642658627690       -0.38315444118264
N            0.85375365350651       -0.24692195194562       -1.07447729352461
C            1.94658127116170        0.23898740624257       -1.62117195690448
C            3.02148802787608       -0.54339918491353       -2.26817745320999
C            4.29769380973073       -0.23767883096018       -1.50968016261308
C            5.00021000499740        0.92761878327955       -1.76727097163167
C            6.15722863933830        1.22536279787443       -1.06473706507722
C            6.63373056856792        0.36300069956948       -0.08771329374003
O            7.74593048095228        0.54932356407074        0.64732295411304
C            8.53616981381211        1.69373820769041        0.41692468644692
C            5.91484762142892       -0.83296023607039        0.18508943087907
O            6.44798220438635       -1.61691281844934        1.14367600526291
C            5.84094897845279       -2.85034448773296        1.44381541847841
C            4.75585428176991       -1.10800502111946       -0.52451197818379
C            0.47082935762419       -1.63306428689345       -1.20558258454357
C           -4.09679383010490        2.87011669253527        0.62174874450518
C           -5.05276901353374        2.56380732460729        1.77423644755991
C           -3.65589962112449        4.33118114728222        0.69151910754308
H           -4.61611669373973        0.74533636915719       -1.14741164900121
H           -6.73973944435651       -0.03757703679332       -1.82730160767568
H           -6.89114312109293       -1.46840730828566       -2.87588771808696
H           -5.42386724170065       -0.46460578154529       -2.96046900798406
H           -4.83500098468667       -4.03792096604255        2.42971498567251
H           -5.14516898478773       -5.26169786354998        1.17500061160171
H           -3.49313026865143       -4.64374764465181        1.41653181725536
H           -3.06232952672289       -2.46127442930961        2.24797714598858
H           -2.23024591153057       -0.18451408937312        2.26848051331257
H           -2.76205619977592        2.48662814820261       -1.50288063362282
H           -1.39741938099526        3.01526153011787       -0.51408328011415
H           -1.87916595397600        0.16193107188815       -1.47302328773835
H           -0.82779108110614        1.35222182372473       -2.24414427456899
H           -2.62225478290864        2.10898686022550        2.73068276903550
H            0.45194339768598        1.52766098280904       -0.05691545855344
H           -0.42831310001491        0.10758935895004        0.50368164925804
H            2.12192783106252        1.29672488998672       -1.49491300725935
H            3.14299103598690       -0.21566745786907       -3.30534359032379
H            2.81836712035275       -1.61195836500753       -2.26407870461161
H            4.65834075361120        1.60975411878582       -2.53046669070529
H            6.68752620227584        2.13493307442431       -1.29397380098069
H            7.98568036225089        2.61226700180316        0.64296472137755
H            8.89935294108851        1.72916592642966       -0.61443720519210
H            9.38323173512109        1.60523785179963        1.09451097587290
H            6.46986446966829       -3.30773329804455        2.20498665810434
H            4.83111327160972       -2.71415207563276        1.84467389192350
H            5.80327131930482       -3.50356044404520        0.56640919369902
H            4.20981224540473       -2.01740691173077       -0.32823719481241
H            0.44984770151036       -1.93588686797146       -2.25378564176154
H           -0.52156420292635       -1.77186536820389       -0.78400384428217
H            1.16899542683352       -2.27971724507419       -0.66911584136476
H           -4.65296088599755        2.73385678994462       -0.30962615159249
H           -4.64482105941372        2.88902387908649        2.72762461001334
H           -5.27659930496961        1.50162918840479        1.83244748760374
H           -5.98592516452093        3.09965915514234        1.62005231618104
H           -3.00028507431560        4.50263740376439        1.54212675821046
H           -3.13258628705496        4.63466579755243       -0.21095476912311
H           -4.52998109253749        4.96850587417728        0.80494996013811
H           -0.38559725137272        2.68109606345210        2.63131658808226
