  25
        -42.07682230
 C          3.0795562328       -0.2248979311       -1.1341985026
 N          2.3370104839        0.2962493568        0.0016664212
 C          2.9005467929        1.0065973695        0.8754632324
 N          1.0068936175       -2.3400527068        0.1122902220
 C          0.3731157442       -1.2300974294        0.0111318150
 C          0.9349143421        0.0839303725        0.0318230754
 C          0.1105175894        1.2545987245        0.2202620507
 O          0.5771815462        2.3519114110        0.4677553441
 N         -1.2470363789        1.0393383269        0.0714203514
 C         -2.1430057552        2.1761461330        0.1243224682
 C         -1.8385160311       -0.2023203235       -0.1180606453
 O         -3.0291662601       -0.3072735499       -0.2579139759
 N         -0.9978214644       -1.3020014701       -0.1042336968
 C         -1.5956602823       -2.6165038030       -0.1761241675
 H          4.1423042844       -0.2277474116       -0.9017051700
 H          2.7447546022       -1.2256885920       -1.3979328642
 H          2.9101636052        0.4280333521       -1.9930149712
 H          2.4850823229        1.5342189015        1.7100082567
 H         -1.5646599502        3.0614035575        0.3823900475
 H         -2.6287707146        2.3122549184       -0.8449988890
 H         -2.9249096626        1.9966675804        0.8645107596
 H         -1.3032414235       -3.2010967095        0.6980746253
 H         -1.2381512589       -3.1402149566       -1.0637759587
 H         -2.6775495683       -2.5051750576       -0.2166128090
 H          1.9986464203       -2.3851258573        0.2752683663
