25
 energy: 49.225416705106 xtb: 6.6.1 (8d0f1dd)
C            3.29240521254366        1.52196990370405        0.13313433198931
N            2.60700834472910        0.25190203570212        0.05184450872808
C            3.04382466217283       -1.00797533330161        0.07959655919425
N            1.98026897348818       -1.86360556708856        0.04696317724987
C            0.80744865259154       -1.12992053922076       -0.00854286532414
C            1.24401427506990        0.20446768894554       -0.01876690071269
C            0.32928150565019        1.30364928478033       -0.07775519595466
O            0.62661569862717        2.49481178683928       -0.10994777908363
N           -0.95739428328267        0.86349197341333       -0.07677769304145
C           -2.01470175015055        1.86012856087425       -0.06503414246209
C           -1.36157003819336       -0.49173077844236       -0.02599480466367
O           -2.56438466713226       -0.60960106341030        0.02373201177990
N           -0.45609125296683       -1.51627250597045       -0.02319164692194
C           -3.32525983161177       -2.99776660095052       -0.12770580632612
H            3.98535451812329        1.54546423232245        0.97084492402625
H            3.84446150607348        1.71939136483647       -0.78695366048374
H            2.52055984319134        2.29170083581870        0.27615832048731
H            4.06828544728845       -1.31903102173123        0.13387995655305
H           -1.52402586592201        2.83238991731611       -0.06641809880693
H           -2.64956902045499        1.73521582831336       -0.94139130296736
H           -2.63104238399578        1.73887058056721        0.82634037340017
H           -3.06654732130712       -3.51687975349808        0.76052051693626
H           -3.12527749088311       -3.41218129364486       -1.08253842477364
H           -3.68313156289019       -2.01035453004039       -0.06139407040711
H            2.03992620920529       -2.87266310952721        0.08325695555309
