25
 energy: 38.354382933063 xtb: 6.6.1 (8d0f1dd)
C            3.57673977901056        1.83281234468040        0.10140613390095
N            2.90279146555208        0.56150772945892        0.07526446842115
C            3.44193573909134       -0.64684760667743        0.09245831325852
N            2.46966333203942       -1.58475482018381        0.06453152803529
C            1.24489763127254       -0.94416753556138        0.02782499013716
C            1.54473623117038        0.42249279282067        0.03149397259477
C            0.47960281484779        1.38987239809510       -0.00743341075348
O            0.63663493850288        2.60412336529679       -0.01416207781177
N           -0.74365312872866        0.77131838182949       -0.03551032828602
C           -1.91925070097850        1.61766799042605       -0.06587033898710
C           -0.99514154826586       -0.64155191711143       -0.02711716367062
O           -2.14653764621994       -1.00592583196916       -0.04435986113651
N            0.06278510539492       -1.48844346082779        0.00050212460374
C           -4.66299538189356       -3.45023562373577       -0.17928047781547
H            4.22180520820041        1.90776519529399        0.97646537661157
H            4.16904585123088        1.96927242510858       -0.80163422763773
H            2.80924126452841        2.60852808159447        0.14092136490893
H            4.49217360390424       -0.85293936914185        0.12303270398443
H           -1.58013437934743        2.65175253919653       -0.05923568537558
H           -2.49757569022762        1.40839234841944       -0.96509471379372
H           -2.54154165198194        1.40941938984841        0.80400726768655
H           -4.87475650946796       -3.95566456600521        0.73611522713967
H           -5.01235279125774       -3.81209927048561       -1.12026290842516
H           -4.28607797236714       -2.45609648387590       -0.13296709393289
H            2.59946677500432       -2.58494162417670        0.07424501051928
