25
 energy: -3.530846721902 xtb: 6.6.1 (8d0f1dd)
C            3.25226521467343        1.21928593756201        0.09724993293589
N            2.34590949190491        0.10988625563716        0.02396596899016
C            2.66315281477586       -1.23951844834195        0.03958866515911
N            1.48518761566641       -1.95089586337698        0.01385503938317
C            0.43600261657627       -1.10409750526801       -0.01002203620022
C            0.94904096978120        0.19922942645073        0.00147802437495
C            0.13906214194856        1.35272806022195       -0.01484755530079
O            0.48677032953410        2.53894377709384       -0.01456046093635
N           -1.24633485669301        1.00379022257779       -0.03476716274135
C           -2.20316368302366        2.09560806571524       -0.05015004509406
C           -1.78285023268716       -0.23835894795519       -0.04782797114238
O           -2.98725734936176       -0.41246192121787       -0.06674537007372
N           -0.91814450711370       -1.35821179478997       -0.03803446968198
C           -1.63156137926584       -2.62772802393662       -0.06449409699322
H            3.76105794791217        1.25835172921984        1.06644705502525
H            4.01186137036845        1.15418360150366       -0.68742911332001
H            2.67426495585486        2.13672240828487       -0.02690636935994
H            3.64169919585765       -1.66364359447777        0.05296214306733
H           -1.63635183439826        3.02553851835080       -0.02722740854224
H           -2.81066844735909        2.03637655236347       -0.95308806319490
H           -2.85646737968964        2.02035688104300        0.81865161439117
H           -1.44802465933789       -3.23415755655223        0.82322907132574
H           -1.43418729790239       -3.20449202200548       -0.96918105225992
H           -2.68746200423291       -2.36064839862968       -0.07030906405112
H            1.44929610852194       -2.95569020289199        0.01783142369443
