25
 energy: 51.087333736543 xtb: 6.6.1 (8d0f1dd)
C            3.27899778795667        1.44450289341069        0.12320433086069
N            2.54691332763281        0.19995474908656        0.04368299530927
C            2.95134167442668       -1.07283722978670        0.06823494163732
N            1.86269597181973       -1.89843436146351        0.03970957919452
C            0.70673221377344       -1.13547238272289       -0.01137342704762
C            1.18009274919509        0.18824444498719       -0.01954482844273
C            0.29490921206926        1.31691211980810       -0.06529169273085
O            0.61755361568982        2.50135551137751       -0.08884596772214
N           -1.00256175573777        0.90904688450651       -0.06835068241975
C           -2.04722213941889        1.91957527984546       -0.06192091225097
C           -1.44640190196358       -0.42873436461334       -0.02554192598307
O           -2.65648364278860       -0.48826140713659        0.02039006453929
N           -0.57292014185307       -1.48333678428149       -0.02568576898421
C           -3.00348819912653       -2.97573526090095       -0.11690426321507
H            3.93107464051801        1.46838169090273        0.99591937307253
H            3.89221059249383        1.59364361294840       -0.76813270689677
H            2.53621488274724        2.24868986264793        0.20515422028493
H            3.96903191125091       -1.41072862425008        0.11887464486051
H           -1.54758137769462        2.88603741640246       -0.05388372936931
H           -2.67708934584545        1.80353164184601       -0.94407584603430
H           -2.67547689852591        1.79875658588751        0.82153289328009
H           -2.70365004761669       -3.45862013462156        0.77919256685296
H           -2.74311622600644       -3.35989372776637       -1.07044437301752
H           -3.45597063897038       -2.02471010538096       -0.05787605356078
H            1.90275901776310       -2.90753344523782        0.07461130986223
