25
 energy: 50.263710122587 xtb: 6.6.1 (8d0f1dd)
C            3.28371326964812        1.48363978164113        0.12833750311677
N            2.57726258533377        0.22504198008982        0.04782827550585
C            2.99820204129895       -1.04126365202553        0.07420376930695
N            1.92201719787230       -1.88202532728746        0.04359684333309
C            0.75759694073332       -1.13354139081168       -0.01001686203067
C            1.21247478515473        0.19558639432404       -0.01938616822788
C            0.31270822661317        1.31012389232356       -0.07151698755182
O            0.62259765031385        2.49813031560426       -0.09881362581267
N           -0.97919860287933        0.88630881463212       -0.07304126025828
C           -2.03069589884971        1.88944596597834       -0.06363141105419
C           -1.40274734618287       -0.46070908944984       -0.02530996152475
O           -2.60935210500258       -0.54834776595558        0.02393825319011
N           -0.51403745597288       -1.50071934227690       -0.02417535942190
C           -3.16889861985983       -2.98710576486947       -0.12291456370350
H            3.95673394337909        1.50763366936565        0.98361991877307
H            3.86755885874820        1.65790641791176       -0.77757003293053
H            2.52322377928947        2.26846141127190        0.24050931520354
H            4.01937128230393       -1.36560903562193        0.12722534752385
H           -1.53595793984125        2.85898900743842       -0.05991375359319
H           -2.66304622999907        1.76911386389502       -0.94294505863545
H           -2.65308511457264        1.76808054869737        0.82371903166864
H           -2.88311918615524       -3.48562164892723        0.76899806136388
H           -2.93251831537726       -3.38363045771739       -1.07716620976258
H           -3.57864547892853       -2.01906791004444       -0.05978835008475
H            1.97176746396519       -2.89118437231586        0.07944322442854
