25
 energy: 45.010546831618 xtb: 6.6.1 (8d0f1dd)
C            3.34381728913390        1.62913657387734        0.12568123520199
N            2.69410439246005        0.34030660057187        0.05946448104808
C            3.17219834101563       -0.90110620447225        0.08925949867165
N            2.14405077860400       -1.79429778699226        0.05496724411873
C            0.94810822991589       -1.10088387047852       -0.00078118975447
C            1.33579783539221        0.24711676068829       -0.01068335482625
C            0.37577094739734        1.30155004378712       -0.07842756439962
O            0.63621342220638        2.50090888498976       -0.11786104173035
N           -0.89430367723405        0.80753960465352       -0.07869481534372
C           -1.97173260087973        1.77999099897354       -0.06739742285948
C           -1.25119208065009       -0.57026867488271       -0.03128753775215
O           -2.44056093895398       -0.77528009912282        0.00350473642535
N           -0.29045624099377       -1.54177785973813       -0.01918562557987
C           -3.75498008036751       -3.05890407752941       -0.13893250256899
H            4.07253181999333        1.66222282514532        0.92957133997600
H            3.81323716214756        1.86995309878413       -0.82446524094263
H            2.56888959932691        2.38419688497531        0.30250589548134
H            4.20563997792742       -1.17539922968710        0.14189600323286
H           -1.49445739956342        2.76052691489188       -0.08486812799072
H           -2.61180691587875        1.63405983197169       -0.93613571375816
H           -2.57236925642378        1.65633240195255        0.83382737644232
H           -3.62156112214119       -3.62893661910268        0.74569778017726
H           -3.70715666832643       -3.51742570195022       -1.09389699249871
H           -3.90013157382268       -2.01549716960312       -0.06910480933367
H            2.23196206168308       -2.80189355632853        0.08778037956973
