  25
        -42.11010494
 C          3.6266947497        3.2814416118        0.3047910436
 N          2.2449538678       -0.3653486858       -0.0989128856
 C          2.3649592985       -1.6610964948       -0.0866665256
 N          1.1526430354       -2.2977739506       -0.0447076430
 C          0.2119501497       -1.3193595751       -0.0331255022
 C          0.9182591838       -0.1056807902       -0.0670445093
 C          0.2131928207        1.1574728997       -0.0655947005
 O          0.7215885439        2.2558234095       -0.1021170055
 N         -1.1690428238        0.9848223917       -0.0115748905
 C         -2.0015014278        2.1807889604        0.0022576112
 C         -1.8745991080       -0.2011860240        0.0279776325
 O         -3.0730469352       -0.2408726164        0.0767789961
 N         -1.1230966494       -1.4020073614        0.0109922888
 C         -1.8261743432       -2.6650092572        0.0408069431
 H          3.8989746274        3.5340698290        1.3141260995
 H          4.3627558719        3.3567038580       -0.4748966916
 H          2.6177234762        2.9646351479        0.0767896503
 H          3.3006228147       -2.1833202412       -0.1040146511
 H         -1.3506112274        3.0481340256       -0.0710297514
 H         -2.6967102761        2.1562738932       -0.8362568310
 H         -2.5793370039        2.2184044207        0.9254377157
 H         -1.5256434370       -3.2473056386        0.9131311629
 H         -1.6248195263       -3.2329357531       -0.8685532596
 H         -2.8926692975       -2.4505176171        0.1006875911
 H          0.9970196553       -3.2956002933       -0.0397958241
