25
 energy: 55.458897508523 xtb: 6.6.1 (8d0f1dd)
C            3.62331002567504        0.85686934179457        0.11912596548016
N            2.61847078518373       -0.17254974017238        0.04245154534674
C            2.85925830829992       -1.47828765505864       -0.02750182050706
N            1.66884211279721       -2.13644759762122       -0.05595138361211
C            0.65461324722828       -1.20765186415451        0.00055422340806
C            1.27119108439139        0.04239150434917        0.05949145265446
C            0.43904888520219        1.27460260258646        0.09268204825533
O            0.91456746968553        2.39844115012602        0.11229433453125
N           -0.86711125114439        1.01787922215167        0.08303818773808
C           -3.88533388858252        3.05364382004340       -0.18275796877564
C           -1.54639956355856       -0.07362403326096        0.03535887187810
O           -2.72122154749661       -0.30488901893781        0.02444940348845
N           -0.64986484836355       -1.39380337033215       -0.00458321890561
C           -1.27987907221604       -2.67623517350994       -0.03507059257047
H            4.02155116446587        0.89512526384160        1.13305654597300
H            4.43370843659505        0.62006247124859       -0.57021652917982
H            3.18661584806997        1.82643528255886       -0.12622447291320
H            3.82779805355411       -1.94407072558731       -0.06789807534125
H           -3.26701453534099        3.91617334767887       -0.16503285011399
H           -4.13519268590861        2.61588207982477       -1.12302251111552
H           -4.25308242209182        2.66639021303891        0.74025331331501
H           -0.99193259267962       -3.27243919170511        0.83576851613471
H           -1.03626355626018       -3.21378910552402       -0.95584419847658
H           -2.35478129545254       -2.48832541733845       -0.00353810761254
H            1.54045921183033       -3.13262215445601       -0.11517285191187
