25
 energy: 56.810538756482 xtb: 6.6.1 (8d0f1dd)
C            3.58096225160049        0.91112536032379        0.13054222202024
N            2.57039191112216       -0.11193941521842        0.02619320922531
C            2.81562300397547       -1.42139341343251       -0.04867146926223
N            1.63546715593772       -2.09593006154784       -0.05954515189647
C            0.62352736189367       -1.15771474183072       -0.00097829721796
C            1.22223262882561        0.09568640321843        0.04077050016141
C            0.38907129504687        1.33131936525198        0.08326113270104
O            0.91006751954854        2.43217736450186        0.14081134004223
N           -0.94279857237783        1.10552097603445        0.05787898543525
C           -3.62051977169099        2.77156928673989       -0.16336180926440
C           -1.57911510084531       -0.01891993368250        0.03866361056994
O           -2.74401649093447       -0.30917999720231        0.05147280369424
N           -0.67844544028439       -1.32034399859485       -0.00710957992589
C           -1.28965852543882       -2.61766406790780       -0.03282293896611
H            3.97687377322555        0.93215619532709        1.14660247459992
H            4.38139408994114        0.65620617880544       -0.56198142410616
H            3.21693248679663        1.90583114256914       -0.10254702023578
H            3.76900638349947       -1.89565517636129       -0.07482608328116
H           -2.99837646305712        3.62229665925246       -0.15308007876068
H           -3.99798887300025        2.43433679575065       -1.09648588525344
H           -4.10999834867325        2.48504881734550        0.73379648467643
H           -0.96945515120433       -3.19947301486831        0.83484416417532
H           -1.02715310455031       -3.14775075514802       -0.95362704686994
H           -2.37141488078164       -2.48611676161723        0.00826184488737
H            1.54734122776300       -3.10363972786462       -0.09739555978925
