25
 energy: 55.839887990861 xtb: 6.6.1 (8d0f1dd)
C            3.46143375931208        1.03385990260027        0.11390325790224
N            2.46901886784483        0.00546731746626        0.01225579389424
C            2.72282672198166       -1.32336189614892       -0.00338192090536
N            1.53640689860189       -1.99970452670419       -0.05131080436973
C            0.53134502281348       -1.06868798271090       -0.01988517772820
C            1.09393539884310        0.19419258335359        0.02496411173173
C            0.22737123319679        1.41138214792348        0.05246333323599
O            0.72193570999447        2.52583444949533        0.12802877409654
N           -1.15494775973230        1.16854596107664        0.00917156701801
C           -3.05937760891629        2.45856454965373       -0.14332435806684
C           -1.70431100917461       -0.04252752831907        0.01503895564782
O           -2.87126431388060       -0.35737836421281        0.04444824901139
N           -0.78976110662956       -1.23523345438865       -0.00874343355375
C           -1.34654080461448       -2.57281083217053       -0.02546906689679
H            3.90104996999228        1.06390249015202        1.11271330878783
H            4.25446651713404        0.83320728693710       -0.60935320051016
H            3.01643922362816        2.00164621871700       -0.07698550713858
H            3.66570586694642       -1.80848414654274       -0.10385259962870
H           -2.49119141315268        3.36452434868006       -0.14028419423250
H           -3.54620270692387        2.18356543070930       -1.05222048439031
H           -3.63296016043982        2.22478141678062        0.72214568777232
H           -0.99482450144369       -3.14318274201828        0.83885963187599
H           -1.03787427530986       -3.08734870585270       -0.93853173355702
H           -2.43530053994796       -2.51568017213798        0.00345007452441
H            1.46157938110807       -3.00222455219874       -0.09756717603058
