25
 energy: 0.928066212217 xtb: 6.6.1 (8d0f1dd)
C            3.31802740893257        1.13616250698980        0.09524461419360
N            2.35038473887531        0.09180768742406        0.02834055268359
C            2.62988393737209       -1.26719411202781        0.01611926483703
N            1.43305149145178       -1.94684510060687       -0.03307329004257
C            0.43448480969952       -1.03939080571054       -0.00737023448653
C            0.95117830690946        0.25019465675487        0.03164368240070
C            0.12301617495467        1.41800864545419        0.03486688105981
O            0.53588277409684        2.57969438543811        0.05709008892937
N           -1.33728431137409        1.13502939382349       -0.01294199935688
C           -2.42027007500233        2.18513928530040       -0.08047726395420
C           -1.81089839369521       -0.14630495081376       -0.01394346735875
O           -2.99934473878715       -0.40063382096992       -0.02272651603266
N           -0.90948192789958       -1.24798842833545       -0.01358120677589
C           -1.43188591487857       -2.60530870019250       -0.04944523698389
H            3.78781107228374        1.17866137970478        1.08249487515839
H            4.09639905729004        0.97910978536497       -0.65731449958778
H            2.80632684197868        2.07477416534621       -0.08616440070797
H            3.59921908131216       -1.70982216058308        0.01737097779563
H           -1.93706649327777        3.16365995398067       -0.06259930946290
H           -3.03970759927833        2.09713994097523       -0.97724086104096
H           -3.10579965050373        2.11539103837231        0.76623083182728
H           -1.11161601800578       -3.17277479767513        0.83008338018045
H           -1.10485890872093       -3.13803136658136       -0.94866831608685
H           -2.51809038244598       -2.53376072568770       -0.05410272045721
H            1.34875254085705       -2.95193456442679       -0.06642954463921
