25
 energy: 54.188734875167 xtb: 6.6.1 (8d0f1dd)
C            3.57369178308329        0.89294459271565        0.11037147872504
N            2.60397298405156       -0.16683267173354        0.04093473893533
C            2.85566119391690       -1.46438315942401       -0.02492031233728
N            1.68381605936373       -2.14645622969363       -0.04899939640651
C            0.65757464045206       -1.23011267727201        0.00649548097442
C            1.25483978235007        0.02296432378713        0.06702448830427
C            0.43160161073622        1.25455614353038        0.08779457114146
O            0.94578384533003        2.36303129462449        0.10535715090998
N           -0.88670915472701        1.01464713748780        0.07036342510004
C           -3.89449443292829        3.14886169335044       -0.17597117510681
C           -1.51670007006802       -0.12300188235146        0.03491371644729
O           -2.69541704804782       -0.35285988104640        0.01904388111890
N           -0.64678577818726       -1.41750552494114        0.00451668506148
C           -1.28533955995061       -2.70565909490108       -0.03626735822597
H            3.98657615521116        0.95732357456171        1.11643641207310
H            4.37553159482407        0.71145162631349       -0.59952694057526
H            3.07401984309933        1.83643981632950       -0.11203919305969
H            3.82491787945062       -1.91503252283392       -0.06589012581155
H           -3.11025623055712        3.86609805902115       -0.14546360249220
H           -4.18682372504616        2.72836884776359       -1.11127224193876
H           -4.30394139567070        2.77624738915318        0.73559320390231
H           -1.01335968683654       -3.31164370292104        0.83269460504439
H           -1.03982596015623       -3.24665083272980       -0.95455479979709
H           -2.35981658508295       -2.50704795782156       -0.01355301861521
H            1.58890129585072       -3.14725502809052       -0.10592109902576
