25
 energy: -42.174421755431 gnorm: 0.004857718020 xtb: 6.6.1 (8d0f1dd)
C            3.23415132768298        0.98510315930228        0.35248949992160
N            2.18197246689794        0.00552925823585        0.32104443372093
C            2.30592553102339       -1.31131484175429        0.47269337938397
N            1.10235153099062       -1.90454896723149        0.33300469423198
C            0.18342930262901       -0.93122157880820        0.08144596917415
C            0.85646466383043        0.27950801918446        0.07529709729323
C            0.16124878451757        1.52490041755734       -0.16374200508630
O            0.63325553292548        2.63605269797123       -0.16937635376364
N           -1.21477599543400        1.27888306071084       -0.40482685967540
C           -1.99270094819563        2.47246045663229       -0.69665044473911
C           -1.85532287609552        0.11580083879427       -0.39260200972951
O           -1.23395527885521       -3.23460383096923        0.60960620682554
N           -1.15191586136984       -1.00976716602133       -0.13186635840358
C           -1.82210498454390       -2.30949415993243       -0.24285757202087
H            3.96919420377003        0.72495889648008        1.11172383384805
H            3.72992479425065        1.03522469928686       -0.61916274288936
H            2.80239471114129        1.96224497668698        0.56642760196209
H            3.22124603963058       -1.82851536247875        0.68004609538164
H           -1.43351841680647        3.10075092095776       -1.38944572548462
H           -2.94466945373580        2.17759190473670       -1.12674753125352
H           -2.15937248436367        3.04133945744585        0.21848571671529
H           -1.69644925662326       -2.67474478616032       -1.27145107530739
H           -2.88583906272782       -2.14179555935829       -0.05113610472185
H           -1.69981595289640       -3.28703169225789        1.45407246560908
H            0.86931319645612       -2.88907227742327        0.41469940690543
