  72
        -99.33208360
 N          0.1761518333        2.3547961070        2.1094373714
 C         -0.9035460724        1.8480964842        1.6886556341
 C         -3.2662603632        2.2440934785        1.0819060731
 C         -3.5448165077        0.8199727298        0.8393838836
 C         -4.0470989112        0.3997922724       -0.3955576219
 C         -4.3346519279       -0.9336578483       -0.6366280149
 O         -4.7989042541       -1.4343321877       -1.7994823806
 C         -5.1294922455       -0.5529508346       -2.8470339340
 C         -4.1361064264       -1.8909675020        0.3987423300
 O         -4.4523413179       -3.1582808798        0.0774445215
 C         -4.3611580399       -4.1633944524        1.0613638955
 C         -3.6479862144       -1.4615312924        1.6263223114
 C         -3.3493523854       -0.1265800108        1.8417778337
 C         -2.0621518339        2.6792458401        1.5043412910
 C         -0.6158726649        0.4175933919       -3.0523633452
 C         -0.5436059679        0.8559245165       -1.6482048514
 N          0.0084534954       -0.1195097514       -0.7256152873
 C          1.4055190531       -0.0387930701       -0.4007632827
 C          2.3796735965       -0.4677974329       -1.5259961418
 C          3.7953015102       -0.3214071156       -1.0612122104
 C          4.4607472479        0.8897528549       -1.2074179722
 C          5.7640035753        1.0441933625       -0.7674520236
 C          6.4355318964       -0.0119734055       -0.1632990618
 O          7.6988027901        0.0189846431        0.2895949760
 C          8.4603888279        1.1952075076        0.1365832324
 C          5.7582571647       -1.2552596083        0.0041761270
 O          6.4794295118       -2.2212204305        0.5996644493
 C          5.9112742366       -3.4958669816        0.7885173954
 C          4.4515987902       -1.3833564012       -0.4446033525
 C         -0.5619003300       -1.4407602099       -0.7962552864
 C         -4.4493209637        3.1626108562        0.9089737116
 C         -5.3184768861        3.0387335393        2.1688104467
 C         -4.0859101549        4.6214675450        0.6518817335
 H         -4.1930211130        1.1292560054       -1.1770406992
 H         -5.8855848217        0.1738393873       -2.5360340635
 H         -5.5364372899       -1.1794821088       -3.6382490939
 H         -4.2467031051       -0.0251999255       -3.2222798660
 H         -5.0035733550       -3.9431123399        1.9186887456
 H         -4.7044435602       -5.0761489422        0.5783160307
 H         -3.3300200658       -4.2987679486        1.4018695538
 H         -3.5058654764       -2.1659411415        2.4296429075
 H         -2.9962009054        0.1901749665        2.8108212744
 H         -1.5482778157        1.1222494975       -1.2941895275
 H         -1.8987825721        3.7252720117        1.7118594363
 H          0.1446153825       -0.2072732192       -3.4808154249
 H         -1.4518597959        0.6868463762       -3.6669849830
 H         -1.0136195781        0.7872844252        1.4305819358
 H          0.0721953170        1.7645694601       -1.5527095005
 H          1.5841857910       -0.6738363786        0.4722786189
 H          1.6315314594        0.9956492747       -0.1248937069
 H          2.2133252904        0.1671707289       -2.3963960637
 H          2.1763920668       -1.5046191063       -1.7965927787
 H          3.9625035757        1.7219428646       -1.6806967108
 H          6.2553153545        1.9936506666       -0.9030839143
 H          8.0185899873        2.0320897747        0.6855644092
 H          8.5689873148        1.4659099431       -0.9178038862
 H          9.4390289587        0.9659000335        0.5536698098
 H          6.6865411769       -4.0938312084        1.2636376603
 H          5.0360981984       -3.4510943345        1.4442056937
 H          5.6324468104       -3.9552858671       -0.1645886622
 H          3.9329056627       -2.3223752261       -0.3304392773
 H         -0.1854055638       -2.0385845213       -1.6341020193
 H         -1.6423068928       -1.3522145745       -0.8991319690
 H         -0.3401648814       -1.9717291894        0.1298435839
 H         -5.0424931772        2.7977565649        0.0633454193
 H         -4.7615932478        3.3692604869        3.0423540356
 H         -5.6287603567        2.0076835314        2.3238240479
 H         -6.2059749079        3.6577284464        2.0689999125
 H         -3.6558526930        5.0816362461        1.5371499956
 H         -3.3783483068        4.7081426150       -0.1694832904
 H         -4.9836661287        5.1766281954        0.3914715242
 H          0.9717200154        1.7407732690        2.2399302047
