  25
        -42.16621958
 C          3.1650760515        1.1037796828        0.3381178421
 N          2.3202086842        0.1237495374        0.1745195541
 C          2.5159201451       -1.0870218829       -0.3996927547
 N          1.3413866584       -1.7848578743       -0.4310581754
 C          0.3633125755       -1.1049931194        0.1500849227
 C          0.9309786271        0.1852038683        0.6138439302
 C          0.0926120916        1.3399198657       -0.0153611102
 O          0.5925534964        2.3571838729       -0.3952192465
 N         -1.2402582303        1.0522701910       -0.0163197240
 C         -2.1741432580        2.1429942333       -0.2976471993
 C         -1.8384032268       -0.2012052320        0.1532060193
 O         -3.0224640388       -0.3428281971        0.2380137562
 N         -0.9691484540       -1.3067855918        0.1233324835
 C         -1.5360570994       -2.6265085947       -0.0991825013
 H          0.8581739301        0.3549615423        1.6945568880
 H          4.1705387891        0.9981376269       -0.0237663921
 H          2.8466616115        2.0160289172        0.8021190694
 H          3.4450643158       -1.4448436249       -0.7844823381
 H         -1.6396718796        3.0849160284       -0.2132637797
 H         -2.5834042276        2.0413035894       -1.3016801156
 H         -2.9898519821        2.0996332748        0.4217686468
 H         -1.0684195848       -3.3492560400        0.5670223282
 H         -1.4089619464       -2.9346574754       -1.1384649242
 H         -2.6009494138       -2.5678950590        0.1209254392
 H          1.2574297515       -2.6995454327       -0.8547280332
