25
 energy: -42.446862084927 xtb: 6.6.1 (8d0f1dd)
C            3.29641281301184        1.27253859317596        0.14260736693771
N            2.39485346790519        0.15645171878518        0.08044437285287
C            2.71690209612601       -1.13967675220784        0.07847084506815
N            1.59747920609374       -1.89523414832983        0.02754322365335
C            0.49822115890000       -1.05380007291903        0.00850860321408
C            1.01336191967014        0.26757796740786        0.03427758600842
C            0.18984886678557        1.41012563352870        0.00162451801798
O            0.56098237895256        2.58977372511190        0.01598205593692
N           -1.16785642132249        1.04673098792697       -0.07645418910665
C           -2.14746170765156        2.11576254839148       -0.15876415605002
C           -1.70240776904183       -0.20470048732608       -0.10979210956036
O           -2.89259449413763       -0.38274856397438       -0.22600341116194
N           -0.81375601485691       -1.33028136074178       -0.04213189055655
C           -1.44796391482488       -2.53077295113079       -0.10778097891924
H            3.91096115388308        1.21531802061674        1.04214238826584
H            3.94922503866269        1.28920239015305       -0.73042089879963
H            2.70492106148191        2.18781300055337        0.17346086649431
H            3.71606000997098       -1.52441198367542        0.11995130661968
H           -1.60132043821946        3.05447812051351       -0.12919238146893
H           -2.72352769886524        2.03820247606788       -1.08082638090658
H           -2.83558386680775        2.04460548712949        0.68213942749575
H           -0.85457669633141       -3.40614848888824       -0.30546732066950
H           -2.47422548043674       -2.47068495204851       -0.47068068937477
H           -3.65880461039280       -3.80847496036437        0.54762315818236
H            1.57393351833385       -2.90403904805127        0.02621885748965
