  25
        -42.06193104
 C          5.7771804781        1.0020567461        0.0813290347
 N          2.0573596774        0.2023223703       -0.0292382922
 C          2.4114398932       -1.0764062500       -0.0315473945
 N          1.2991918407       -1.8427904103       -0.0169506612
 C          0.2095696789       -1.0167858744       -0.0071689011
 C          0.6886008497        0.2822872433       -0.0159211348
 C         -0.2062058386        1.4304407683       -0.0081929191
 O          0.1450011928        2.5829309273       -0.0050296813
 N         -1.5385872236        1.0236346730       -0.0094300314
 C         -2.5541488520        2.0701811338       -0.0185152776
 C         -2.0395500021       -0.2650706560        0.0022644381
 O         -3.2134526155       -0.5019427796        0.0069987307
 N         -1.0961395220       -1.3226758004        0.0078013865
 C         -1.5768163324       -2.6903979292        0.0329045869
 H          6.1815063827        1.2768152430        1.0459921637
 H          6.3720192935        1.1895298488       -0.8003652221
 H          2.6863118212        0.9974673890       -0.0337689674
 H          3.4176156300       -1.4464496258       -0.0366625476
 H         -2.0466224263        3.0314491839       -0.0320983333
 H         -3.1851778666        1.9621192989       -0.8995154089
 H         -3.1807292150        1.9857293787        0.8683294407
 H         -1.2294667828       -3.2012900623        0.9311722623
 H         -1.2516811441       -3.2284215976       -0.8577175363
 H         -2.6655572844       -2.6515976446        0.0452256149
 H          1.2841784696       -2.8532958404       -0.0162368980
