  25
        -42.15760258
 C          5.2630927712        0.4265905411       -0.6155865269
 N          3.9517127355       -0.0433858356       -0.5705320590
 C          3.1797717062       -0.1688937251        0.4412612094
 N          1.9243164194       -0.4632216814        0.3825412439
 C         -0.3668366447       -0.5697527432        0.1400816099
 C          0.8891045871       -1.1846066600        0.2353009392
 C         -0.5739967472        0.8878161019        0.2107317705
 O          0.2365836086        1.7647617761        0.3682543170
 N         -1.9404790142        1.0459613618        0.0517682905
 C         -2.6356563848        2.3074516364        0.0581825922
 C         -2.5767449152       -0.1656218268       -0.1105239107
 O         -3.7403354351       -0.3792653266       -0.2769823601
 N         -1.5676921528       -1.1546680732       -0.0470942160
 C         -1.8652027727       -2.5484335569       -0.1963451601
 H          5.6939496655        0.6351214317        0.3726361628
 H          5.8813521774       -0.3135857306       -1.1328217127
 H          5.2862288232        1.3423241986       -1.2158634290
 H          3.5287930494        0.0954101460        1.4553245431
 H         -1.8967875201        3.1060678233        0.0390881189
 H         -3.2876011704        2.3693502439       -0.8139009781
 H         -3.2502225849        2.3938054806        0.9565041203
 H         -1.5543805535       -3.1075604327        0.6879053545
 H         -1.3634435310       -2.9594189247       -1.0745635686
 H         -2.9442616412       -2.6399992411       -0.3218822412
 H          0.9658943830       -2.2631517615        0.2026676665
