72
 energy: -99.345144210275 gnorm: 0.002157848303 xtb: 6.6.1 (8d0f1dd)
N           -2.39597571394123        2.08668773191323        2.48201807086130
C           -2.39341762503705        2.40772739139610        1.27099089487352
C           -3.46858925124555        1.99405920445109        0.30266583519717
C           -3.96221117047953        0.56506945745066        0.47021848972582
C           -4.92758198835770        0.09319131752069       -0.42427629155112
C           -5.41176404404967       -1.20292381369309       -0.35853383560448
O           -6.33347437756736       -1.73278407228139       -1.19071178230050
C           -6.92020761408881       -0.91852692233592       -2.17801312647584
C           -4.91945069814279       -2.08251394743106        0.64436926027970
O           -5.43634179982448       -3.32659248304255        0.63498679143111
C           -5.02020058765157       -4.24687464187429        1.61676597863546
C           -3.96628931760434       -1.60490406968036        1.53147865479926
C           -3.49387237819825       -0.30393073436842        1.44301404341173
C           -2.94342851557724        2.18629138454387       -1.14293269028384
C           -2.13603771376212        0.99675358473727       -1.67341464192058
C           -0.97413306388773        0.63594633409224       -0.79851019328197
N           -0.55807764067294       -0.49999878110959       -0.46723984065651
C            3.76180743329970        0.04889747022292       -1.15849683299073
C            4.43370551252577       -0.49058149025371       -2.35213120936199
C            5.30192912845363       -0.05291483744208       -1.15251464418730
C            6.06333235411486        1.17031276433584       -1.28836871248506
C            7.28626760708282        1.31760588589326       -0.70513965119340
C            7.86055972677370        0.28797419305379        0.05767485263436
O            9.04667204928498        0.33986338463905        0.66075982329638
C            9.83192641421607        1.51020247171739        0.57565472866911
C            7.13832327017663       -0.94431425848141        0.22803340124830
O            7.77937182519711       -1.86165951740737        0.97855989783505
C            7.16791998590710       -3.11386776267471        1.19115740234068
C            5.91155934473895       -1.09975818631088       -0.34759062154375
C           -1.15503296895113       -1.73628892394049       -0.86918464973860
C           -4.68060802859415        2.95739417197213        0.56388568730018
C           -5.36626066959589        2.63148535171260        1.88666928425382
C           -4.27802627414963        4.43106995793505        0.53528899933984
H           -5.31020832850374        0.75127135685696       -1.18684242542805
H           -7.43314160111281       -0.05875759361092       -1.73637950470968
H           -7.64743910815566       -1.55069272699669       -2.68372399333583
H           -6.17928085784943       -0.56989898811254       -2.90506670270688
H           -5.26070704704401       -3.89374507393381        2.62382442947416
H           -5.57295047530421       -5.16168413628496        1.41267031053037
H           -3.94665687526236       -4.44791126956283        1.54754692092914
H           -3.57746065250211       -2.24428525050185        2.30688703069073
H           -2.76217013141481        0.03145403925004        2.15764948562099
H           -3.78310369905233        2.35291325604631       -1.81941905500393
H           -2.31946685608923        3.08097905522871       -1.18207247426647
H           -2.78049165513648        0.12764918062368       -1.80928967246620
H           -1.73070266904892        1.26495937020483       -2.65488826955969
H           -1.64555604020132        3.08657395498177        0.84024840589032
H           -0.38904981462354        1.47066517789748       -0.42336013451335
H            3.23025811172415       -0.62373220001621       -0.50366171332509
H            3.34893755844861        1.04503562410788       -1.19697379826164
H            4.50187870759224        0.11935479115420       -3.23911128839439
H            4.39034468229913       -1.55077567282180       -2.54485026691349
H            5.64060761931025        1.97230916273981       -1.87238997792287
H            7.82319035098983        2.24343479196646       -0.83579195672230
H            9.30909668583869        2.37211517076342        1.00063808958795
H           10.11694480123691        1.72545144737649       -0.45826761539425
H           10.72618734345290        1.30469397761759        1.16149495140853
H            7.86806231899145       -3.68066449458014        1.80120611940998
H            6.22041213742230       -3.00950417696166        1.72823678733529
H            6.99966077557160       -3.64050188943996        0.24695086443605
H            5.35329426390391       -2.01337828241914       -0.22719078123473
H           -0.90109076914450       -1.95575810372836       -1.90880624189588
H           -2.24402387741628       -1.73717072458864       -0.76853652036547
H           -0.73840941763054       -2.52172090263620       -0.23892835270793
H           -5.39875534538437        2.78979104886697       -0.24526355449983
H           -4.65039459768315        2.66410097354958        2.70426434449563
H           -5.80865162354826        1.63919935979241        1.86422002127234
H           -6.15243466912533        3.35602737271850        2.08240642610465
H           -3.63117308649832        4.67407828733167        1.37465746514700
H           -3.77125782954847        4.69452145767939       -0.38942692175166
H           -5.17008362463688        5.04834226066691        0.61251517088674
H           -1.66009231850351        2.46730227554207        3.06895586777311
