25
 energy: -41.989246554285 gnorm: 0.003918934356 xtb: 6.6.1 (8d0f1dd)
C            4.42880072006336        1.32918992209312       -0.00450597346476
N            3.16483070895535        0.62019444378235       -0.07974990277255
C            3.18899227970131       -0.73046245064750        0.07686782266984
N            2.10527098697764       -1.43176784272255        0.06095553867203
C            1.12508872599481       -2.02550265832292       -0.23992204378265
C            2.03328217692642        1.25335048233652       -0.28086590191785
C            1.20925740490002        2.18392369085983       -0.45536713637824
O            0.28066171302039        2.88967043885875       -0.61093961488720
N           -2.30173926375574        2.67951475151683        0.84189245292193
C           -3.42563560908313        2.61104366485241        0.32560894059002
C           -2.42182684807370       -1.35720799145476       -0.23938424353389
O           -2.45176839757668       -0.20771513778387       -0.38670600551387
N           -2.15615687320702       -2.49872355098330       -0.03617379304588
C           -2.62992167893923       -3.83356528436058        0.00536273789047
H            4.85500541831992        1.23302113942199        0.99585009915328
H            5.13457617455806        0.91810549745362       -0.72779644113471
H            4.26917965886732        2.38268684351114       -0.22135032697308
H            4.13181799694964       -1.21566007682972        0.27102864975117
H           -1.47159722638148        2.87741099746299        0.28568824762922
H           -3.64743881647968        2.74600032027800       -0.73928936345629
H           -4.27993516033950        2.39833782828298        0.95929623308208
H           -2.37652960469088       -4.26237048239168        0.97694511910375
H           -2.13364283222592       -4.40895345866234       -0.77802780025759
H           -3.71012759706812       -3.88459975337641       -0.14050311112841
H            0.23998745669438       -2.44768279157647        0.17225743468833
