  72
        -99.33796615
 N         -1.7109426826        2.6485188851        2.4937617647
 C         -1.7167396611        2.0821298554        1.3799679555
 C         -2.9041265726        2.0302483661        0.4548806312
 C         -3.4858242461        0.6274296227        0.4545097951
 C         -4.6579067591        0.3729880479       -0.4531453390
 C         -5.0640756505       -1.0679273017       -0.5218110295
 O         -6.0197315489       -1.4541603018       -1.3426843035
 C         -6.7042016887       -0.6969126739       -2.1455424623
 C         -4.5009538451       -2.0546492893        0.3240402264
 O         -5.0167708080       -3.2948585842        0.1731209743
 C         -4.5837838050       -4.3234156148        1.0352585886
 C         -3.4945279279       -1.6979697730        1.1988872398
 C         -2.9989761390       -0.3702807524        1.2300184824
 C         -2.3612006228        2.3632823939       -0.9627244498
 C         -1.5055028247        1.2496206191       -1.5932590395
 C         -0.1427951772        1.1669691958       -1.0181506314
 N          0.5094363866        0.0383550402       -0.7433964799
 C          1.8969055553        0.0721308586       -0.3469969015
 C          2.8416133784       -0.3186222385       -1.4994838357
 C          4.2680651528       -0.2245746614       -1.0347019929
 C          4.9629362928        0.9696290950       -1.1251180195
 C          6.2671042846        1.0685250350       -0.6646627636
 C          6.9010421805       -0.0274174608       -0.0983768672
 O          8.1609722003       -0.0467896566        0.3785649365
 C          8.9452575772        1.1202089889        0.2902669370
 C          6.1942995300       -1.2565008743        0.0030939985
 O          6.8847568874       -2.2710389232        0.5643870751
 C          6.2777174074       -3.5353444697        0.6783391938
 C          4.8916143065       -1.3312093486       -0.4626173110
 C         -0.1084819398       -1.2573391135       -0.8872117298
 C         -4.0136914466        3.0555836233        0.8407186541
 C         -4.6613847873        2.6994362111        2.1772910451
 C         -3.5121102613        4.4966468088        0.8857566928
 H         -5.5255236221        0.9500146763       -0.0855721733
 H         -6.5791653267        0.3691041923       -2.2107511655
 H         -7.4330811805       -1.2071030651       -2.7445018777
 H         -4.4554193859        0.7498235809       -1.4589602862
 H         -4.7618958861       -4.0668241153        2.0831339408
 H         -5.1791184346       -5.1948593557        0.7702808414
 H         -3.5235257735       -4.5506461184        0.8878039391
 H         -3.0631131935       -2.4212831459        1.8691084050
 H         -2.1909064436       -0.1717942504        1.9189786568
 H         -3.2053238346        2.5679181391       -1.6213275821
 H         -1.7670685376        3.2755111248       -0.9050448911
 H         -2.0234468476        0.2946602027       -1.5185991274
 H         -1.4031481686        1.4909894965       -2.6599569615
 H         -0.8309404152        1.5903164999        0.9335085367
 H          0.4290054423        2.0804839945       -0.9564419120
 H          2.0463421947       -0.6148696983        0.4909688167
 H          2.1511367837        1.0791241231       -0.0102672358
 H          2.6751606431        0.3605475059       -2.3372274747
 H          2.6189438951       -1.3343662472       -1.8283204263
 H          4.4950201634        1.8353078684       -1.5688881143
 H          6.7846517998        2.0092748852       -0.7556345971
 H          8.5091122070        1.9412310665        0.8676428608
 H          9.0795715588        1.4348196777       -0.7490349584
 H          9.9116573120        0.8550308527        0.7146335821
 H          7.0272904091       -4.1793200837        1.1341041968
 H          5.3930484682       -3.4998969350        1.3225913963
 H          6.0021291718       -3.9385482215       -0.3012109305
 H          4.3490421684       -2.2614400226       -0.3972401627
 H         -0.3165304650       -1.4811488914       -1.9359830619
 H         -1.0456261474       -1.3000446666       -0.3268016208
 H          0.5622235082       -2.0184356146       -0.4970299745
 H         -4.7773272995        3.0011085215        0.0565489094
 H         -3.9419646880        2.8290288653        2.9786830866
 H         -5.0116529167        1.6703412659        2.1922766984
 H         -5.5086461725        3.3554081041        2.3598295361
 H         -2.7185360029        4.6012304901        1.6186549389
 H         -3.1537325070        4.8329186990       -0.0836211035
 H         -4.3316542995        5.1471104515        1.1799722915
 H         -0.8427118817        2.6414168400        3.0202596343
