25
 energy: 55.881367101114 xtb: 6.6.1 (8d0f1dd)
C            3.20678815961137        1.50301910357565        0.17203823955539
N            2.54095739109778        0.22528896141918       -0.02262371902257
C            2.95227972875775       -1.03817891891650        0.11332637395004
N            1.88723733259990       -1.89109117064342        0.08274968235351
C            0.72257994672433       -1.16364214026596       -0.06694953067613
C            1.18195379050367        0.16140187131932       -0.16077648737144
C            0.29926340294158        1.28184110275359       -0.22580135304732
O            0.63246556790757        2.45945633888826       -0.30184258205177
N           -0.99317602162267        0.87147671218863       -0.12399958077010
C           -2.01098009126012        1.90738738796599       -0.04197565985543
C           -1.44342143360857       -0.46109849367199       -0.04896978358262
O           -2.65296413015943       -0.47843378146105        0.06338462643371
N           -0.55926617128691       -1.52853545437455       -0.05717480538020
C           -3.13251225907077       -2.99707681921257       -0.12938868617426
H            4.10364421411596        1.39112096432298        0.77516363214850
H            3.50896200607143        1.95592697773587       -0.77933467628036
H            2.50760143417563        2.18360836196484        0.67573842069054
H            3.95939141337154       -1.38906459280391        0.16773692763635
H           -1.44955859366519        2.83878055997929       -0.04146425820450
H           -2.67567187021249        1.83667665263798       -0.89587950747471
H           -2.59791141009459        1.79724476486973        0.86980957260444
H           -2.93516156523576       -3.38115068660742        0.83409317014553
H           -2.87442196498624       -3.53918733065335       -0.99558614176048
H           -3.44094521473233       -1.99358157367846       -0.21888689781791
H            1.93553406101310       -2.89644459894900        0.16600727010632
