25
 energy: 38.600678365725 xtb: 6.6.1 (8d0f1dd)
C            3.62535580161654        1.80406044147579        0.09563837816972
N            2.90093805821832        0.56081707756923        0.06663866669265
C            3.40345800015717       -0.66559337856881        0.07981254596523
N            2.40665451942581       -1.57482332995775        0.04916463949819
C            1.21142012781102       -0.88811129508043        0.01189805989353
C            1.53724355883665        0.46868593108767        0.01767438519780
C            0.48205627302809        1.46142976700486       -0.00544489011539
O            0.66929816581615        2.67142805650333       -0.00132893860794
N           -0.75486256631709        0.86867363037951       -0.03726495245736
C           -1.91985149285016        1.73387598448499       -0.05414563816046
C           -1.03110972313311       -0.55026237167877       -0.02871144936682
O           -2.18773251926735       -0.90224166659730       -0.03151203242148
N            0.01606788926727       -1.40174959913716       -0.01163684211966
C           -4.56976418797445       -3.67629540762582       -0.15914457890748
H            4.28420340465845        1.84417333465666        0.96359074182533
H            4.20927065907266        1.93556270589481       -0.81818451358039
H            2.89775674405844        2.61578915085160        0.16104528130887
H            4.44448941462251       -0.90596935114235        0.11976698667021
H           -1.56316392901830        2.76090392179006       -0.04251228337383
H           -2.51420435377123        1.54612732838806       -0.94907553844198
H           -2.53873305017332        1.53448486478337        0.82073552355477
H           -4.84247467365335       -4.04794630316109        0.80136913455870
H           -4.80473567922843       -4.10038665896530       -1.10746627173245
H           -3.99584056513119       -2.77791679525276       -0.17206139932501
H            2.49751163027974       -2.57934726313007        0.06191996489720
