25
 energy: -5.647195859439 xtb: 6.6.1 (8d0f1dd)
C            3.25240799090862        1.20903017505574        0.09663908012308
N            2.33144551081856        0.11233372849198        0.02616510674863
C            2.62907104852046       -1.24232601525574        0.03673391977454
N            1.44108173366343       -1.93468504188220        0.01211867049605
C            0.41507007253083       -1.06789993671764       -0.01298633415948
C            0.93780702565816        0.22545340983430       -0.00109989039949
C            0.12248981724899        1.37317204020988       -0.01570049281842
O            0.46958514680266        2.55878698409275       -0.01568859489780
N           -1.26613625726811        1.02179865738089       -0.03487760527815
C           -2.21451980534064        2.12179048390337       -0.04907070695451
C           -1.81017570722322       -0.22184729019174       -0.05073048942238
O           -3.01147902640853       -0.41208647237409       -0.07090743752292
N           -0.92982971163121       -1.32598547648421       -0.04224720019946
C           -1.56190470677181       -2.62983181539247       -0.06035078626197
H            3.75970524656517        1.24649574418038        1.06671309697548
H            4.01336560475922        1.14171889537373       -0.68723783807994
H            2.68657555814710        2.13481821441938       -0.02522076029906
H            3.59865483221993       -1.68190235657334        0.04637778988608
H           -1.64345595676318        3.04913532699133       -0.02616127820044
H           -2.82081060635287        2.06950912596925       -0.95253208917485
H           -2.86489973250817        2.05287303930789        0.82172499300546
H           -1.32632107404350       -3.21025307386639        0.83405824707375
H           -1.29881292907774       -3.19742712160074       -0.95541086506758
H           -2.63284482530257       -2.44459596357184       -0.07633630434087
H            1.35179087790948       -2.93557172471510        0.01582467290727
