25
 energy: 34.221561554059 xtb: 6.6.1 (8d0f1dd)
C            3.23499170119551        1.37279173614447        0.13584110594394
N            2.43499131684019        0.14873218511668       -0.02343153350098
C            2.78266798025579       -1.19030867189426        0.05872457794462
N            1.64143127714816       -1.95941147954738        0.04683856761899
C            0.50464485563977       -1.22328574305699       -0.05742071238047
C            1.01249500433095        0.12259859825163       -0.09720619908683
C            0.21009546905294        1.26979264744295       -0.12933823003443
O            0.51329890746116        2.46822875061058       -0.17909863326926
N           -1.15659990960395        0.90501324615440       -0.08244658759596
C           -2.11467369631906        1.99840879177230       -0.04962771322357
C           -1.69694314940156       -0.32911950796884       -0.07613355100084
O           -2.92120109213126       -0.35587665315470       -0.05423407229763
N           -0.92591446613315       -1.53787386968724       -0.09120040266852
C           -2.03194699962680       -2.66939730089527       -0.08418570744214
H            3.96373162270124        1.32332564555381        0.95771584631580
H            3.82485178021417        1.64513820776293       -0.76160173156825
H            2.55220524617380        2.20863531973934        0.35057581916219
H            3.76926250465350       -1.60307198349280        0.10058618928690
H           -1.52875321473129        2.91795424894032       -0.03854780891379
H           -2.75013238495481        1.93957588018507       -0.92939510693915
H           -2.72733626034392        1.91993397765140        0.84601092743101
H           -2.10463221889639       -3.26396640188894        0.82520304799633
H           -2.06751345581064       -3.31312316409969       -0.95684741351133
H           -2.93440241241665       -2.07006691592383       -0.11098846606825
H            1.67082034097683       -2.96231912175161        0.10946962636081
