25
 energy: 39.667223611908 xtb: 6.6.1 (8d0f1dd)
C            3.59048562144138        1.78270212491563        0.10005859533280
N            2.87418420772274        0.53248817859665        0.06178905884377
C            3.36722564581626       -0.69670743899483        0.08827691947293
N            2.36943076852447       -1.60628302443841        0.05454424891573
C            1.17726644305989       -0.91414135199498        0.00110880638955
C            1.51181718337930        0.44036872783377       -0.00187095017077
C            0.46710285376428        1.43906998254003       -0.03602699886848
O            0.66477916793872        2.64712042038651       -0.04176789932126
N           -0.77499170961800        0.85754442489611       -0.05662144818820
C           -1.92619529531597        1.73648712031609       -0.04982052561684
C           -1.06693496363524       -0.55066955127707       -0.03203488301212
O           -2.22918212992674       -0.88593961351515       -0.01748205749591
N           -0.02492781456335       -1.41189624226173       -0.02071654325077
C           -4.43450291994416       -3.64788312757465       -0.15500904039265
H            4.31001941324956        1.79267651055822        0.92286358144988
H            4.10615823564405        1.97343398334339       -0.84789285950921
H            2.85991049393036        2.58799206670073        0.24142417972688
H            4.40470296587129       -0.94007297593486        0.13866155875161
H           -1.54234970531162        2.75347856613843       -0.05092446281828
H           -2.54349627839682        1.55802772384996       -0.92998761001273
H           -2.52016212830137        1.54596701014102        0.84405576025010
H           -4.67654069404179       -4.00089283971090        0.82209557642784
H           -4.63024311209031       -4.07791304581536       -1.11092988312514
H           -4.01572286593452       -2.67308830754963       -0.18439237553480
H            2.46437413806834       -2.61224966996779        0.09180366280872
