25
 energy: 37.599402851249 xtb: 6.6.1 (8d0f1dd)
C            3.64003654007085        1.82861505609053        0.09698314222383
N            2.90791487370290        0.58818838457451        0.07043027173835
C            3.41981238380303       -0.63396121353509        0.07276692989389
N            2.42914107235468       -1.54951340854786        0.04247442450448
C            1.21993937341992       -0.88270739744266        0.01905524668439
C            1.54417215598119        0.48094460785772        0.03765136667833
C            0.48770025712925        1.46414573990263        0.01703391177108
O            0.65545742264623        2.67615586276952        0.03130222481164
N           -0.75065968804813        0.86541038673806       -0.02216868366043
C           -1.92070948646743        1.72470271292053       -0.05061983910769
C           -1.02077255061809       -0.54138082368654       -0.03537681279077
O           -2.17387118785871       -0.90260260666250       -0.06547339262383
N            0.02688719606779       -1.40342597025677       -0.01434111388039
C           -4.59337210968295       -3.63896170924300       -0.16095458838832
H            4.24023682832848        1.89642911736460        1.00482457372275
H            4.29948359531407        1.89943080465537       -0.76845578013662
H            2.92211917776206        2.64931209206025        0.07533622185504
H            4.46569218542823       -0.86554416655703        0.09520701781488
H           -1.58211257619639        2.75839376642914       -0.02536132697247
H           -2.49728640442746        1.53565534604249       -0.95666938317945
H           -2.55738302223728        1.51127662146643        0.80841187401794
H           -4.96702669091305       -4.02437185703787        0.76490242970877
H           -4.93587139734023       -4.06029839211565       -1.08299965772294
H           -3.88635593697842       -2.83552475003401       -0.16425522103617
H            2.53904229373046       -2.55133941500698        0.03733007626790
