25
 energy: 49.596830285826 xtb: 6.6.1 (8d0f1dd)
C            3.27301969069898        1.61414401347867        0.16792363676606
N            2.64096658819300        0.31577039014176        0.00833698665161
C            3.08584683235936       -0.93395734638042        0.13801159454850
N            2.05345566479906       -1.82373071506876        0.09959275552322
C            0.87264335507380       -1.11943341248876       -0.03944524529698
C            1.28811972501719        0.21538699571615       -0.12161854129288
C            0.36234526474929        1.28706930337502       -0.24467299332543
O            0.67200419570934        2.46330683394660       -0.38276046770346
N           -0.92239452270592        0.84131789222012       -0.14225173990166
C           -1.95716003046764        1.86207938166862       -0.03792786439001
C           -1.32173918104401       -0.51900377521148       -0.04303324378428
O           -2.51996489517353       -0.63615038011791        0.06798204233412
N           -0.38535230703731       -1.52562483220713       -0.04285950848949
C           -3.55949587975255       -3.10708289416089       -0.14331874884990
H            4.24343696291936        1.52712179170083        0.64148227379339
H            3.33634892492535        2.14700994802612       -0.77758361134610
H            2.64570302730131        2.25870502379497        0.77940243654626
H            4.10259425854346       -1.24561357229737        0.19255198287600
H           -1.42602088176241        2.81139896605362       -0.06416873465556
H           -2.65659632381534        1.75507910432271       -0.86024890626007
H           -2.50305873387054        1.74506450191983        0.89884084593060
H           -3.47320442371850       -3.52306294080406        0.81897329505844
H           -3.41652366296899       -3.68040072706034       -1.01291570780438
H           -3.73915329474848       -2.06611214908566       -0.23123240913740
H            2.13039397759470       -2.83026869004872        0.19989089597109
