25
 energy: 4.370455897171 xtb: 6.6.1 (8d0f1dd)
C            3.26013960605490        1.27572436921039        0.11408766833876
N            2.38831330359241        0.11924633484922        0.00936265158800
C            2.70462414936479       -1.24302604609876        0.04149912436630
N            1.52571018961505       -1.95382543952846        0.02669701495758
C            0.46017432387268       -1.13245526845906       -0.02438803321632
C            0.97919619760422        0.18196180935928       -0.03112332932427
C            0.14724634894208        1.31769210942704       -0.05362669276359
O            0.44377490025063        2.51717712774489       -0.06743987155759
N           -1.23858513062596        0.95407639830296       -0.04968326083496
C           -2.18227486890963        2.06049985358423       -0.04891941236016
C           -1.76908150104488       -0.28760384104151       -0.06042199647875
O           -2.97739750180298       -0.45015312702140       -0.07142653769434
N           -0.90659487167842       -1.41903278329048       -0.05221188336548
C           -1.73870896108341       -2.64610826761052       -0.06174601367640
H            3.84331731153389        1.29071897859817        1.04335075804483
H            3.97714790845730        1.34964756539451       -0.71723495024512
H            2.63846644153090        2.17973609962127        0.11733812851790
H            3.66494673354810       -1.71817502311638        0.06707601826103
H           -1.60079787497832        2.98380988467573       -0.03036082584895
H           -2.79601635653785        2.01225300769257       -0.94566454896707
H           -2.81603933045904        1.99584548352025        0.83283146561329
H           -1.64064163016924       -3.24932861211506        0.84079086187338
H           -1.60775441132475       -3.25684249429278       -0.95410310109799
H           -2.75200381260714       -2.25836506256234       -0.08186398231168
H            1.47399724563310       -2.95672596779990        0.06508708413260
