25
 energy: 45.434253009465 xtb: 6.6.1 (8d0f1dd)
C            3.36448870469409        1.67717267015886        0.13824775447779
N            2.71580344451664        0.38240005765933        0.02109797889433
C            3.17325311263462       -0.86200755660928        0.12925788264634
N            2.15479386780553       -1.76370580360062        0.09574223798031
C            0.96563503250284       -1.06431482209575       -0.02484728400500
C            1.36063826771213        0.27674240967396       -0.08933574374002
C            0.40187372845445        1.32417150904088       -0.17861948980241
O            0.67402567508878        2.51564082182039       -0.26462146186083
N           -0.87073495896947        0.83045642972604       -0.12729478195461
C           -1.92924064734970        1.82643329214793       -0.03173871090274
C           -1.24657911331967       -0.54308422631934       -0.04116785184778
O           -2.43769742356792       -0.72557841594187        0.04466373602800
N           -0.27264573499754       -1.50482197093840       -0.03554695094903
C           -3.80182144750744       -3.24109974624106       -0.14715869537069
H            4.30389201368614        1.61987910277271        0.67455159439875
H            3.54955759187448        2.15347978149739       -0.82337701308075
H            2.69315503273641        2.37217495596677        0.64225787118109
H            4.19492021287660       -1.15308327425549        0.19118008063078
H           -1.41849599312049        2.79059661227141       -0.06523850849104
H           -2.62965538857864        1.69046019017489       -0.85459296662742
H           -2.46023955052531        1.70054148316170        0.91286421425243
H           -3.82360044145591       -3.65771846072686        0.81838099870539
H           -3.76599762786410       -3.80169978092607       -1.03651697298820
H           -3.85595345386538       -2.18527033284464       -0.22260256258717
H            2.25026187269796       -2.77078417360218        0.20167959809522
