25
 energy: 41.852197005052 xtb: 6.6.1 (8d0f1dd)
C            3.45203424387456        1.71662535870889        0.12374362067005
N            2.77813192021746        0.43929955678506        0.04397764858133
C            3.25289688778806       -0.79618712035204        0.12041402656047
N            2.24708075477146       -1.70548977760087        0.08455294608888
C            1.05262098916870       -1.01145859576309       -0.01406346703638
C            1.42135115236651        0.33734978960950       -0.05546775370038
C            0.42846838044726        1.36459773621300       -0.12195018060105
O            0.66846950397395        2.56506520618517       -0.17129931649942
N           -0.83057714654016        0.83006623599483       -0.10434172670985
C           -1.92637868774954        1.78156790732720       -0.03410246968603
C           -1.17517365546734       -0.55317706154299       -0.03943587456739
O           -2.35722920996537       -0.80228256322455        0.01743228971178
N           -0.17054013277213       -1.47569831406034       -0.02908518447695
C           -4.04274336605986       -3.41100780144464       -0.15212445871924
H            4.31091351492224        1.67404982622018        0.78771915370263
H            3.77522430179196        2.07357025521727       -0.85603599835181
H            2.73946993736677        2.47030335869337        0.47702018456744
H            4.28142021674457       -1.06346869720670        0.18788214780508
H           -1.45979800164104        2.76391267960953       -0.06385065402119
H           -2.60618370811980        1.62228367562944       -0.87319066062353
H           -2.46926120010899        1.63160472683102        0.89989075853966
H           -4.16158331103248       -3.80892411143532        0.82216547995450
H           -4.10491914629556       -3.92776420831815       -1.07544286816638
H           -3.93033599698164       -2.35907142905955       -0.21142947931898
H            2.36606285696086       -2.71053372159748        0.17909335230699
