25
 energy: 40.575417761541 xtb: 6.6.1 (8d0f1dd)
C            3.49879687930054        1.73329591147534        0.11658834827492
N            2.80836430759174        0.46791772032445        0.05445562015633
C            3.28937758854013       -0.76434958060077        0.11282464375893
N            2.28611836169426       -1.67333340152199        0.07645708509762
C            1.09024513218011       -0.97840089991568       -0.00708162364503
C            1.45008970706814        0.37121697617935       -0.03581736445321
C            0.44019854598080        1.38950206217006       -0.09360858784228
O            0.66540754317263        2.59304769772847       -0.12852536876342
N           -0.81381253042173        0.83865478705158       -0.09075379817706
C           -1.92980348295844        1.76269971702057       -0.03996529635897
C           -1.14237355589985       -0.55160683841382       -0.03690633857599
O           -2.31831492361490       -0.83186636509607        0.00751057453007
N           -0.12469377797310       -1.45461288679677       -0.02516234388104
C           -4.18744269614904       -3.47498288113765       -0.15265682235971
H            4.31337966807714        1.70306075247470        0.83807787229679
H            3.88746226590931        2.03403746526006       -0.85928330487845
H            2.77884311664359        2.51181003950649        0.39780052969112
H            4.32120517593108       -1.02159567824371        0.18119790765034
H           -1.49038824704088        2.75634107743437       -0.06428516618182
H           -2.59384952119508        1.59389468855790       -0.88972055943079
H           -2.48450894492585        1.59695199351594        0.88389051678297
H           -4.32830155268901       -3.87582692666524        0.81733719819609
H           -4.28041993755421       -3.97887927874763       -1.07927157389402
H           -4.01764101209284       -2.43214018468159       -0.20557618592553
H            2.41111706763169       -2.67781690045385        0.16169987869706
