25
 energy: 43.493129027061 xtb: 6.6.1 (8d0f1dd)
C            3.40844568665454        1.69586766375078        0.13225230118842
N            2.74768000042630        0.40943915823251        0.03502082346426
C            3.21416208994241       -0.83028018902084        0.12654247379959
N            2.20278465497995       -1.73630384171762        0.09168737735181
C            1.01069332110336       -1.03978343883924       -0.01906915986777
C            1.39257444494604        0.30560733288157       -0.07141656103458
C            0.41710852809560        1.34281086316880       -0.15005688162095
O            0.67204915696545        2.53955502868056       -0.21766103120502
N           -0.84785181046809        0.82706146292398       -0.11608702620157
C           -1.92423886081408        1.80285027516112       -0.03101517471278
C           -1.20992430333989       -0.55050147626124       -0.04119759939037
O           -2.39690824249431       -0.76537339498663        0.02940445219203
N           -0.21978434550431       -1.49276859391300       -0.03280390547937
C           -3.91386225440293       -3.32723516103151       -0.14675756474977
H            4.30992605452893        1.64507050409728        0.73282882725720
H            3.66415055180555        2.11227950564353       -0.84154349287639
H            2.71343569826436        2.42337628441493        0.55922068064434
H            4.23914190757270       -1.10868344941926        0.19047705136236
H           -1.43218589316882        2.77424319397140       -0.06344525033702
H           -2.61667030567310        1.65492935225730       -0.86086871332748
H           -2.45902406057808        1.66706797205932        0.91017773428838
H           -3.99484560402204       -3.73760831964632        0.82008572711998
H           -3.94276938731326       -3.86859786292207       -1.04959531310321
H           -3.89842834325704       -2.26918971162157       -0.21607058335388
H            2.30930473558882       -2.74255116305814        0.19312127864145
