25
 energy: 56.873480395897 xtb: 6.6.1 (8d0f1dd)
C            3.20815212518673        1.46696542081223        0.15572761073573
N            2.51032599771060        0.20455742469526       -0.03662153581287
C            2.90668095778254       -1.06569103281439        0.09129990685853
N            1.82886308926396       -1.90373248245171        0.06766020178652
C            0.67100415171180       -1.16471978933595       -0.07586095342277
C            1.14598391098951        0.15817158342106       -0.16485031109474
C            0.27416908572420        1.29251867214695       -0.20764782955633
O            0.61052186388013        2.47062511835707       -0.26773917870774
N           -1.02259808672532        0.89042537173555       -0.11188818362780
C           -2.03594060652262        1.93152917626624       -0.04504290726656
C           -1.48872697126631       -0.43424109709817       -0.05324944590613
O           -2.70168596707032       -0.43340227969028        0.05102652593329
N           -0.61923154284126       -1.51395390736513       -0.06694588366695
C           -2.96467521855834       -2.97583968713903       -0.12284304915992
H            4.06071349667787        1.35330844775822        0.82218590584564
H            3.59780510121831        1.88980290860426       -0.78013442924503
H            2.49771242763455        2.18251050537811        0.58904234120119
H            3.90940385045550       -1.43262810779705        0.14836533909102
H           -1.47406721222357        2.86367486100735       -0.04067096251882
H           -2.69165664498707        1.85534401512114       -0.90726054525833
H           -2.63197033982101        1.82337760237211        0.86133242873161
H           -2.75311510154667       -3.35561202652197        0.83954214629272
H           -2.69377097000358       -3.49784722765598       -0.99692444422814
H           -3.32896023845275       -1.99177425874072       -0.20604821914035
H            1.86669247383368       -2.90860509727870        0.15484558498814
