  72
        -99.32676493
 N         -2.4374590251        2.9515192934        2.7345334357
 C         -2.3207648916        2.2012025085        1.7424923075
 C         -3.3313946975        2.1006876836        0.6313678068
 C         -3.8481688965        0.6756568322        0.5470717632
 C         -4.6133243599        0.2771286701       -0.5508074912
 C         -5.0961988568       -1.0163353987       -0.6666242009
 O         -5.8352481954       -1.4818976513       -1.6955396951
 C         -6.2732232375       -0.5850584694       -2.6897054065
 C         -4.8050435568       -1.9652306441        0.3506583087
 O         -5.2866878944       -3.2079538414        0.1444388105
 C         -5.0921461566       -4.1891233599        1.1362490682
 C         -4.0678051887       -1.5553085409        1.4512471545
 C         -3.6003419633       -0.2512125845        1.5485847871
 C         -2.5659661541        2.4857816899       -0.6658912935
 C         -1.7073111852        1.3747262457       -1.3007862256
 C         -0.5453972760        0.9613760376       -0.4746133301
 N         -0.1913697266       -0.2901774250       -0.2042826449
 C          0.8719889679       -0.6044295208        0.5239471690
 C          4.1626820007       -0.4061586989       -2.4641418904
 C          5.3194764842       -0.2841731324       -1.7338763806
 C          6.0627692394        0.9295375483       -1.7177639821
 C          7.2140014345        1.0502396544       -0.9836339118
 C          7.6934729141       -0.0178104993       -0.2181846010
 O          8.7956493549       -0.0015423806        0.5387296244
 C          9.5796291937        1.1673320372        0.6135832632
 C          6.9684698731       -1.2538894825       -0.2143570270
 O          7.5112340500       -2.2183150563        0.5567685067
 C          6.8661498916       -3.4672574865        0.6418231321
 C          5.8205310388       -1.3702992992       -0.9554471200
 C         -0.9982888371       -1.3868543186       -0.7148305690
 C         -4.5524827379        3.0490398432        0.8207529129
 C         -5.3490643881        2.6924166294        2.0735213850
 C         -4.1706221350        4.5259416868        0.8587193084
 H         -4.8404594389        0.9948103144       -1.3218817996
 H         -6.8637799997        0.2301460932       -2.2612980685
 H         -6.9008202683       -1.1728346300       -3.3565147434
 H         -5.4336484150       -0.1709629494       -3.2578095530
 H         -5.5531120606       -3.8973968740        2.0844681891
 H         -5.5789048667       -5.0863324231        0.7593250983
 H         -4.0284222709       -4.3940275350        1.2951700577
 H         -3.8558883644       -2.2449529981        2.2519556757
 H         -3.0510189282        0.0352254361        2.4315691154
 H         -3.2918941389        2.8031704320       -1.4147714413
 H         -1.9275496494        3.3422962326       -0.4447559248
 H         -2.3438257143        0.5273278178       -1.5446158654
 H         -1.3283591821        1.7882719784       -2.2448550880
 H         -1.4400388258        1.5638225899        1.5571034370
 H          0.1327508661        1.7323284476       -0.1418139704
 H          1.1151018412       -1.6295179017        0.7080617991
 H          1.4975785206        0.1712402055        0.9204606123
 H          3.7848098485        0.4107800013       -3.0513141750
 H          3.6123455734       -1.3295672235       -2.4846143107
 H          5.7070594784        1.7631278979       -2.3028595002
 H          7.7555435541        1.9825569818       -0.9988323692
 H          9.0123041887        2.0019048127        1.0365355998
 H          9.9720545909        1.4512702385       -0.3669303485
 H         10.4077370985        0.9212173633        1.2759564229
 H          7.4695736227       -4.0619529765        1.3246194586
 H          5.8534741709       -3.3661400717        1.0450452723
 H          6.8239172948       -3.9639298910       -0.3323616300
 H          5.2669884517       -2.2951777974       -0.9718520138
 H         -1.0506373941       -1.3404856688       -1.8020466631
 H         -2.0071424300       -1.3395472387       -0.3034851890
 H         -0.5494171342       -2.3345401194       -0.4289416847
 H         -5.2035617037        2.8894370184       -0.0469479315
 H         -4.7482507074        2.8717450528        2.9596587091
 H         -5.6588737651        1.6500895611        2.0607544337
 H         -6.2393794121        3.3134856745        2.1286735351
 H         -3.5084275919        4.7203544477        1.6966440282
 H         -3.6879497578        4.8459053297       -0.0607237290
 H         -5.0699428543        5.1228545003        0.9887420983
 H         -1.6803553335        2.9672293313        3.4106822973
