72
 energy: -99.302093608593 gnorm: 0.003733306570 xtb: 6.6.1 (8d0f1dd)
N           -1.67863549218193        2.77550888674762        2.28744215110891
C           -1.65390464684000        2.08340077518444        1.24851473818227
C           -2.81758453270413        1.89942366606290        0.31423148854877
C           -3.30217062895662        0.45915350980328        0.38596044704320
C           -4.21819770633232       -0.01112915750312       -0.55729746310965
C           -4.70102010394823       -1.30808995113410       -0.51362785453678
O           -5.58670727361300       -1.83926760116297       -1.38254112205488
C           -6.15478183484274       -1.01797772345207       -2.37513812618033
C           -4.25451978731821       -2.18691222648848        0.50975862900943
O           -4.77341925639422       -3.43108275542497        0.47290925439028
C           -4.44780160703786       -4.33949069599117        1.49874759401187
C           -3.34848329026508       -1.71282733552612        1.44472869575867
C           -2.87972840327875       -0.40641738756784        1.38261792672340
C           -2.27374274555070        2.20749486383691       -1.10504961629902
C           -1.35893968962405        1.11475537946000       -1.68300246496740
C           -0.00530482536681        1.09036411017385       -1.08489054348076
N            0.67275422877371       -0.00681255430552       -0.75539706832634
C            2.09848040219643        0.06646414149427       -0.53436124708275
C            2.87337960989642       -0.22966953157919       -1.82722166712941
C            4.39215765442456       -0.11259770508216       -1.61810851239045
C            4.75443393590555        1.28542478593162       -1.17747952470101
C            5.81655693188361        1.46411498437769       -0.39505060022383
C            6.51894073349474        0.44673892524291        0.21681438541388
O            7.72459272782343        0.53772890072014        0.75622519006661
C            8.42527731939133        1.74431816542638        0.53051937586016
C            5.84288132371864       -0.84816249015317        0.30514220001204
O            6.34265176783607       -1.68540808994303        1.23404339624472
C            5.85579947898977       -3.00687945921129        1.28461206225079
C            4.88315184332903       -1.11681274809400       -0.61077798428075
C            0.06057726275742       -1.31326231009134       -0.75357861006464
C           -4.02167599418870        2.83507474182295        0.63167385656515
C           -4.65096000752999        2.50119159321312        1.98190509998504
C           -3.65826562723884        4.31660379381845        0.58462806854518
H           -4.56892997789023        0.65303233539166       -1.32948809322052
H           -6.68566956437846       -0.16753389245218       -1.93690593810972
H           -6.86417011456857       -1.64996057057263       -2.90571502654350
H           -5.39885055872446       -0.65540362689108       -3.07959243841421
H           -4.75005178259932       -3.96109179233563        2.47973463014212
H           -5.00640765777595       -5.24592539238737        1.27392327700011
H           -3.37711770897699       -4.56760242190083        1.50900189545908
H           -3.00645294224489       -2.35098744629225        2.24324584146815
H           -2.19738016907959       -0.06534081391719        2.14571500943998
H           -3.11681672053373        2.33941636674384       -1.78209765145577
H           -1.72622091448298        3.15025139076477       -1.07494901859877
H           -1.85015124126507        0.14614007806384       -1.60786719999698
H           -1.23327987188321        1.34068952842769       -2.75063341007949
H           -0.74987899175504        1.56056532647888        0.87645404713750
H            0.54917593819099        2.01712897240816       -1.07064175441656
H            2.38384404072595       -0.65112123667482        0.23869833151605
H            2.36061891054660        1.06558606404003       -0.17878251475475
H            2.55976684207454        0.47555541456608       -2.59935480275594
H            2.63521997496391       -1.23776168111312       -2.17162598927542
H            4.14705489349846        2.10405039403027       -1.53046251539367
H            4.86381215195944       -0.33448802420173       -2.58651828997054
H            7.75880118914589        2.60084204031729        0.67036517995073
H            8.82342739950449        1.77135098858480       -0.48744568532610
H            9.24358136036464        1.76927243785124        1.24649098246650
H            6.38738483983316       -3.48662195578095        2.10377655750032
H            4.78013142002100       -3.02599208726452        1.48775579965184
H            6.06136188799152       -3.54283727056017        0.35336963140352
H            4.46510044251990       -2.10728908282884       -0.69816224772604
H           -0.12007027583048       -1.67358923131561       -1.76927519714271
H           -0.89048816770819       -1.28590727183256       -0.21740947926899
H            0.72021586280333       -2.01584289744205       -0.24956873594505
H           -4.77205717266244        2.64544900696076       -0.14460915851991
H           -3.94083299363651        2.69015987995939        2.78037880332915
H           -4.96233277414482        1.46032340507762        2.02409936400477
H           -5.52565050339839        3.12652773330709        2.13996779112828
H           -2.89244989236354        4.54055381679166        1.32075234702135
H           -3.31027893404399        4.61914675016524       -0.39949731700599
H           -4.53935261365752        4.90715786611481        0.82133105340834
H           -0.82388178075148        2.85127492161315        2.82985460959296
