72
 energy: -99.418663917939 gnorm: 0.008577672210 xtb: 6.6.1 (8d0f1dd)
N           -2.61193929869127        3.13800988074478        2.29655908263270
C           -2.19600556548300        2.24344888265414        1.34718408195093
C           -2.78374687939271        2.44266267954957        0.15737132908462
C           -4.75694205047377        0.12856861485242        1.60619038909785
C           -5.30390683163471       -0.02351104449044        0.33697538623625
C           -5.02236321432771       -1.14940426496158       -0.42484902263913
O           -5.49518497074726       -1.39291983924931       -1.67057907394868
C           -6.49047208871310       -0.54525255618605       -2.19484213998067
C           -4.17614211808292       -2.15404672631555        0.10953160320652
O           -3.95379625719844       -3.22064521544975       -0.70057344269636
C           -3.33824049911342       -4.36534560837750       -0.16017098631965
C           -3.64212166819772       -1.98917055841442        1.37807674891758
C           -3.92782186064604       -0.84875915413258        2.12217574404871
C           -2.56459299125300        1.73613269687930       -1.13684860615527
C           -1.78347640805714        0.43122328962571       -0.98728234134573
C           -0.36765586501371        0.65970903531691       -0.63068261256300
N            0.44167489422766       -0.30087835043336       -0.20012434071228
C            1.84148055992832       -0.04813647284932        0.04283112492173
C            2.72487281209002       -0.48207968144844       -1.14360867989842
C            4.17025812344772       -0.22197328201479       -0.82229446170435
C            4.73657037902586        1.01788421180170       -1.06509879387837
C            6.05910851898973        1.27129180815958       -0.73384131633423
C            6.84145421020566        0.28757397216330       -0.14771700711998
O            8.13166868175492        0.42231708203407        0.21785828881828
C            8.78314933424360        1.65085349168133       -0.00717112014939
C            6.26987279130559       -0.98904893345934        0.10347872445168
O            7.10196547838486       -1.88931326143643        0.66842473779007
C            6.63563954125279       -3.19276360643999        0.92015965650485
C            4.94573164173887       -1.21831635225416       -0.23312162890567
C           -0.02838997868612       -1.65826186996424       -0.07878718227861
C           -3.77227032788339        3.58240994387778        0.27888925331133
C           -3.72395767440316        3.91638674278905        1.78581216446896
C           -3.38560441866933        4.78047713925298       -0.59050710078401
H           -5.96443088867375        0.73710209242961       -0.04380153029177
H           -7.35683169472952       -0.48582087170822       -1.52976472404114
H           -6.79190134226392       -0.99394914729880       -3.13941724975386
H           -6.10556424252465        0.46286943368057       -2.38257628239899
H           -3.87864597713500       -4.73471174292750        0.71623261938161
H           -3.37323614352664       -5.11627746857532       -0.94707959912305
H           -2.29321793477725       -4.17655852118556        0.11014985767728
H           -3.01881581167005       -2.75875661376179        1.80739352076447
H           -3.51014650421295       -0.74400180192228        3.11062305173009
H           -3.53961283873564        1.51350991552764       -1.57804722787989
H           -2.04251713467797        2.39702507295398       -1.83673866779198
H           -2.27770071047399       -0.19467224943023       -0.23770746756852
H           -1.83781511183985       -0.12283652698822       -1.93406588088227
H           -1.44050663599947        1.52325716338353        1.60563749331317
H            0.04941942614438        1.64799887951267       -0.72862656620631
H            2.15065256945301       -0.59139746361825        0.93988308596455
H            1.98796091572631        1.01850866817956        0.22231519404289
H            2.42847362630109        0.08379093834640       -2.02818673751078
H            2.57143114775738       -1.54295002364999       -1.34547291767540
H            4.15144624002143        1.79820865461865       -1.52756270375761
H            6.47384321137797        2.24395878323433       -0.94150469491554
H            8.30294946739824        2.46611239787900        0.54278308048279
H            8.81605170005186        1.89790465129365       -1.07259459991173
H            9.79755343933521        1.51508018795918        0.36293013656913
H            7.48117510899680       -3.72800476958198        1.34785700725307
H            5.80884221471583       -3.19253185728507        1.63805122665359
H            6.32080400571066       -3.69188910203306       -0.00169686798706
H            4.50448316449153       -2.18593662232688       -0.05134450236500
H           -0.40460172296508       -2.02965325694169       -1.03445476997212
H           -0.84101480029814       -1.71257077801111        0.64981234175469
H            0.78484523125153       -2.29782516261003        0.25409861676764
H           -4.77331587110432        3.25436659806739       -0.01859846637021
H           -3.54211084112909        4.98039228463000        1.95843605992424
H           -4.65799168113974        3.64797386945133        2.29180611067048
H           -4.99473637277120        0.99931271694390        2.18428929378032
H           -2.38085962622394        5.11598479987948       -0.34588718963951
H           -3.42016293560779        4.51447633030975       -1.64357031176102
H           -4.07777637659092        5.60183148540484       -0.42433392216150
H           -2.55871867261697        2.92569588515018        3.27858056779945
