25
 energy: -42.435203375470 xtb: 6.6.1 (8d0f1dd)
C            3.39430192547102        1.09403274244152        0.06202793315369
N            2.40032024178150        0.06453920640769        0.00470916001083
C            2.64462951801395       -1.27068686383167        0.03234227205944
N            1.46231312017115       -1.93759355040866        0.01813391812168
C            0.45479113593400       -1.03059772572868       -0.01145857348275
C            1.01449416378425        0.24625294201197       -0.00304791860953
C            0.24571836302118        1.43118539258028       -0.02694569133250
O            0.66080022245523        2.58258812525142       -0.13080851047295
N           -1.18058775092965        1.13844655128106        0.04790496908565
C           -2.08916080288015        2.17359967949225        0.03298374790424
C           -1.74181003174992       -0.12992831389820       -0.06788300652736
O           -2.93184174206691       -0.32163874878379       -0.17334856729483
N           -0.87700365274287       -1.23625265842613       -0.06085413558596
C           -1.43372177761210       -2.57497460865576       -0.06223784833390
H            3.86368995232312        1.12482636457247        1.04910151146186
H            4.16335910806242        0.91006901890018       -0.68844527722058
H            2.92046615592842        2.05323196423262       -0.13234633443449
H            3.60548020418560       -1.73273014534927        0.07555696925974
H           -1.67549683826488        3.16216260270010        0.05224982907950
H           -3.05946215583940        1.95402318778112       -0.37339447901656
H           -4.26541940593024        2.09409101076297        0.54701345408881
H           -1.13115876178101       -3.11306739750827        0.83919908777139
H           -1.10658322013354       -3.12294613054979       -0.94780365892112
H           -2.51929008809802       -2.48012496148850       -0.07619732465559
H            1.36645770514429       -2.93984489840820        0.01393626271518
