25
 energy: 0.000000000000 xtb: 6.6.1 (8d0f1dd)
C            3.23720163006194        1.16630919979326        0.08434469647475
N            2.29877817382611        0.07527477071623        0.03981603040599
C            2.58028210190900       -1.21425402444508        0.03006176031096
N            1.43813958087363       -1.93419271955128        0.00098261760884
C            0.39035688448383       -1.05887472636071       -0.00790371836672
C            0.93510056364412        0.21347819449412        0.01709077491437
C            0.09450143893243        1.40504303904423       -0.00410947031874
O            0.49712751527797        2.54126714362870       -0.00342325688240
N           -1.25076640035757        1.06271879480407       -0.03085478223738
C           -2.21907211982101        2.15522099834493       -0.05001256985998
C           -1.81739487048744       -0.20012725993278       -0.04692818574614
O           -2.99983886758376       -0.37846417018721       -0.07008878229737
N           -0.92618586207120       -1.30210215599479       -0.03682761578324
C           -1.46982264913417       -2.64643102187190       -0.06029820460571
H            3.71247264356769        1.21471455160235        1.06488849150277
H            4.00791497605742        1.03430808813993       -0.67357694370751
H            2.69910007168542        2.09770118228144       -0.09130154882931
H            3.56654120610678       -1.63682992603973        0.04233140067262
H           -1.67107961066214        3.09322851271934       -0.02552706933167
H           -2.82428953597071        2.09428624779827       -0.95318082946668
H           -2.87644029173232        2.07745725625962        0.81450067533302
H           -1.17061996399332       -3.19584890659852        0.83242232437030
H           -1.14560257411436       -3.17511610292205       -0.95688275822323
H           -2.55549792440841       -2.55659984320617       -0.07459039797972
H            1.38130855184625       -2.94313852034425       -0.01389874181052
25
 energy: -0.685587287032 xtb: 6.6.1 (8d0f1dd)
C            3.27420855819221        1.15748729201177        0.08004705102713
N            2.32450378513510        0.08795068610402        0.03187307519828
C            2.60852246212594       -1.24070486770694        0.03141183908342
N            1.43416692845162       -1.94197114886462        0.00250637365880
C            0.40785594536182       -1.05148496839551       -0.01256581568337
C            0.94579704367569        0.22531938266667        0.00729242325462
C            0.11607562890843        1.40363413207098       -0.01126947228747
O            0.52451335897782        2.56502591814223       -0.01824297710121
N           -1.25605716686938        1.06737597130566       -0.01548221910024
C           -2.25240392882178        2.14816753941028       -0.01364083432195
C           -1.81049449577199       -0.18707650383036       -0.05137888116769
O           -3.00618614278618       -0.36978336070042       -0.07596817517179
N           -0.92293650026255       -1.28933993850482       -0.04257211685328
C           -1.46400445025778       -2.63009917807223       -0.06011689071693
H            3.75054850253589        1.19892372158453        1.06310774596693
H            4.04388976981655        1.01004874091641       -0.67928402256930
H            2.74129875801108        2.08846790524050       -0.09989048226551
H            3.58426259842396       -1.67160327286602        0.04974299983118
H           -1.68990132196685        3.08826703366268       -0.00545729011331
H           -2.85895072358393        2.08397980516025       -0.89013448377871
H           -3.09911000325639        2.07282656627942        0.73700513398642
H           -1.16092783060993       -3.17765383078897        0.83437430998351
H           -1.13752899895838       -3.16492377934587       -0.95401779644008
H           -2.54907529365213       -2.53809723424983       -0.07348999729573
H            1.36414818511739       -2.94570800905782       -0.00681560097642
25
 energy: 14.156102072062 xtb: 6.6.1 (8d0f1dd)
C            3.32846520430755        1.13301293870384        0.07203176739657
N            2.35192311853113        0.09447560059431        0.01797851052826
C            2.63107879922497       -1.26540401320800        0.03487595106452
N            1.42838254894627       -1.94134280884789        0.00616575542707
C            0.42698074832785       -1.03811059193674       -0.01838648736796
C            0.95793870861390        0.24300819705736       -0.00720050433524
C            0.13764538586715        1.40650148414542       -0.01785733636000
O            0.54707639737883        2.57860428848849       -0.04713689560539
N           -1.27157564581918        1.08482589956744        0.01960599252765
C           -2.30917373412814        2.14278326920946        0.03015855159575
C           -1.79680600472969       -0.16646673418076       -0.04815365867418
O           -2.99681456113579       -0.35979387364519       -0.08871652012337
N           -0.91556347100534       -1.26649072738428       -0.05070847936729
C           -1.45243563843016       -2.60478053086478       -0.06087987800374
H            3.80831888228303        1.16774482786314        1.05629941041734
H            4.10057040891094        0.96714673017079       -0.68463643275675
H            2.81672410040332        2.07376360956971       -0.11297815052501
H            3.59659116469810       -1.70752650180306        0.06247216099440
H           -1.73885071113763        3.08318159685878        0.04411382550130
H           -2.90523942274399        2.06736769227598       -0.83859176326930
H           -3.37128444194786        2.04736345727506        0.64022584974482
H           -1.14652421663060       -3.14846638656775        0.83672331439924
H           -1.12549201758710       -3.14826218834295       -0.95082990837458
H           -2.53705606920314       -2.51126725871508       -0.07291666748353
H            1.34733513494180       -2.94283937411132        0.00537548879673
25
 energy: 25.736245195495 xtb: 6.6.1 (8d0f1dd)
C            3.37774117068906        1.10434371483369        0.06450716167250
N            2.36949279903270        0.09362279353433        0.00750866087432
C            2.63773477042328       -1.27550325837952        0.03935032363814
N            1.42697533881760       -1.93539876900688        0.01218919686630
C            0.43800314924247       -1.02471830325429       -0.02216918079767
C            0.96784865709241        0.25878674813981       -0.01804133474145
C            0.14454634321694        1.42096659010527       -0.02396372681679
O            0.55295909344496        2.59104360405036       -0.07141200265652
N           -1.28954301238398        1.10521608475738        0.04588984011910
C           -2.37371862597676        2.13696268478820        0.05945610430882
C           -1.78948095370554       -0.15205433734052       -0.04996842219114
O           -2.98847989708761       -0.35844267784742       -0.10680322256702
N           -0.90612608769393       -1.24609033224156       -0.05886569430818
C           -1.44025862891486       -2.58354708619893       -0.06213418838514
H            3.85970311387768        1.12876799562277        1.04925882563508
H            4.15258405686027        0.91550598786838       -0.68656427618010
H            2.89925446646168        2.06218674594015       -0.12633616032564
H            3.59908467899359       -1.72849850466024        0.07640694372627
H           -1.81745592201460        3.08472672580145        0.08815289309299
H           -2.94121473641164        2.04947154827687       -0.82562939725672
H           -3.53680861477161        2.01898610258051        0.60129107433178
H           -1.13352590976907       -3.12006780951751        0.83968272317025
H           -1.11199791161427       -3.13136455322505       -0.94876085463940
H           -2.52477382053409       -2.48847531135111       -0.07531455963100
H            1.33967115066160       -2.93739778110418        0.01930316920854
25
 energy: 29.463711690614 xtb: 6.6.1 (8d0f1dd)
C            3.39732413529794        1.08991548297360        0.06112147914174
N            2.37424066750395        0.09242282440784        0.00414085585788
C            2.63611750339902       -1.27357969396769        0.04104043572181
N            1.42843262370402       -1.93041838282083        0.01598055120039
C            0.44040703041279       -1.01882065334206       -0.02177244642461
C            0.97126160230276        0.26506567629518       -0.01999422567071
C            0.14612667957648        1.42971924645944       -0.02497193898158
O            0.55306487717976        2.59426350986555       -0.08152442444924
N           -1.29800354274299        1.11296865238731        0.05760993516362
C           -2.40063312843144        2.13578386902056        0.06909927244819
C           -1.78854536959613       -0.14832233453654       -0.05228334843474
O           -2.98520548768495       -0.36126443559319       -0.12072481312981
N           -0.90159400093045       -1.23819537516512       -0.06236196061468
C           -1.43424941508918       -2.57668585535284       -0.06278098685019
H            3.87885946129873        1.10803523766247        1.04617423097810
H            4.17101711900160        0.88779355174862       -0.68786942556361
H            2.93807191858269        2.05623678931525       -0.13276732704931
H            3.59710135954371       -1.72981558675883        0.08157559975081
H           -1.85505391171998        3.08797028079475        0.10213194679582
H           -2.95471621522543        2.04290961421882       -0.82105972146848
H           -3.59097331932109        2.01281841259639        0.59555794986304
H           -1.12762344479854       -3.10905797615670        0.84111327700901
H           -1.10454325730557       -3.12526782784831       -0.94779699684305
H           -2.51890895609216       -2.48249099927264       -0.07761796417480
H            1.34023973907079       -2.93295542475907        0.02501394187171
25
 energy: 29.439765054174 xtb: 6.6.1 (8d0f1dd)
C            3.39893429447105        1.08740084340790        0.06070673920415
N            2.37409035139628        0.09193568174255        0.00392553819945
C            2.63410105979739       -1.27048496667823        0.04101872738715
N            1.42947400507871       -1.92883411779148        0.01688042499711
C            0.43956182900016       -1.01817531134230       -0.02019990806918
C            0.97142030836476        0.26557758235480       -0.01851907675998
C            0.14735103331795        1.43185386294295       -0.02409845845019
O            0.55313063453575        2.59399004149952       -0.08518259998996
N           -1.29949421070268        1.11296412388897        0.06124780473708
C           -2.40309236673937        2.13604183616945        0.06912573317310
C           -1.78961922976788       -0.14844158622829       -0.05263673917715
O           -2.98496609072384       -0.36212215201198       -0.12546177790402
N           -0.90123931864988       -1.23735895090879       -0.06254980002370
C           -1.43346782761908       -2.57673492241308       -0.06294184542644
H            3.87965356025823        1.10467307180239        1.04590467353031
H            4.17138415786465        0.88304672805722       -0.68810553350172
H            2.94361142955193        2.05452372467592       -0.13364361925545
H            3.59570333323950       -1.72673011223339        0.08174452350503
H           -1.85878632615906        3.08811185975617        0.10273511696794
H           -2.95559650852296        2.04103431867156       -0.82095145789917
H           -3.59330319010720        2.01489100757066        0.59848151828891
H           -1.12676710244237       -3.10837081261948        0.84107921412173
H           -1.10317911467758       -3.12478164021896       -0.94782986045816
H           -2.51820063066151       -2.48342026015866       -0.07842450018975
H            1.34151058783337       -2.93156124776343        0.02472905914023
25
 energy: 29.159510314969 xtb: 6.6.1 (8d0f1dd)
C            3.39863951726871        1.08685508398800        0.06074691137039
N            2.37391306088130        0.09160115694453        0.00365333589116
C            2.63262384201544       -1.26820932993360        0.04092697224030
N            1.43016166241517       -1.92815526196751        0.01740879256987
C            0.43859470293665       -1.01827532872279       -0.01867996978943
C            0.97123815898248        0.26558256620976       -0.01703819212820
C            0.14938079619923        1.43303505531686       -0.02369102438145
O            0.55341352410804        2.59414061391026       -0.08875960680290
N           -1.30022479328385        1.11196433163587        0.06421780357437
C           -2.40252106050733        2.13628859004446        0.06843693983372
C           -1.79074965029031       -0.14863347245123       -0.05314012608484
O           -2.98517653277663       -0.36247616999258       -0.12886952250831
N           -0.90149046617689       -1.23732477534606       -0.06256024998716
C           -1.43352128361888       -2.57731199165068       -0.06309721655296
H            3.87856102096569        1.10420357324192        1.04622753100554
H            4.17074670596011        0.88188248301758       -0.68766461740299
H            2.94466205757855        2.05402682739856       -0.13397540481373
H            3.59468875316540       -1.72462068158111        0.08179939046843
H           -1.85820684757145        3.08795714571293        0.10174482404303
H           -2.95602125656672        2.03854419939680       -0.82044630337854
H           -3.59051873780397        2.01692702230818        0.60222009452375
H           -1.12665792359761       -3.10873685932347        0.84082398680516
H           -1.10297314433259       -3.12487271864294       -0.94811105557821
H           -2.51825677476257       -2.48438974494484       -0.07889432057143
H            1.34190933674834       -2.93097371239691        0.02375492380172
25
 energy: 29.130574808828 xtb: 6.6.1 (8d0f1dd)
C            3.39836985803058        1.08712468158142        0.06083997797491
N            2.37417073790353        0.09144325198224        0.00323434683195
C            2.63248084429489       -1.26797795414498        0.04076617727423
N            1.43032295231338       -1.92820324987197        0.01753631725737
C            0.43841511481539       -1.01846400317741       -0.01815641997636
C            0.97117565602000        0.26561296864039       -0.01647331261347
C            0.15081150505931        1.43323056556724       -0.02353174795799
O            0.55350371543625        2.59456009543417       -0.08976158593271
N           -1.30052787892389        1.11145509011558        0.06558171789875
C           -2.40182076968338        2.13634208546620        0.06814956083245
C           -1.79105427756928       -0.14850055893414       -0.05344126130139
O           -2.98531373043445       -0.36258377487888       -0.13007819645641
N           -0.90160077974462       -1.23742090215422       -0.06257967228440
C           -1.43369444771542       -2.57744748583475       -0.06315415109557
H            3.87801059263855        1.10477017300625        1.04650366851807
H            4.17078965823536        0.88243663022044       -0.68731492626808
H            2.94398016558427        2.05411951028414       -0.13403790980349
H            3.59449084532650       -1.72475670678022        0.08178080583995
H           -1.85727455011469        3.08789106629998        0.10066305805354
H           -2.95644606736988        2.03699695418676       -0.81990997358761
H           -3.58964727957585        2.01772191664799        0.60359289926800
H           -1.12674447272454       -3.10895201440569        0.84068162024973
H           -1.10328409621110       -3.12497183378523       -0.94827852512230
H           -2.51840866223173       -2.48440949429570       -0.07887195252403
H            1.34151003457713       -2.93098840899758        0.02329338107220
25
 energy: 29.277122629892 xtb: 6.6.1 (8d0f1dd)
C            3.39812713083703        1.08767018573549        0.06098620352364
N            2.37486648581537        0.09109104374518        0.00230902752159
C            2.63285354890110       -1.26855562308100        0.04029530759750
N            1.43044822243582       -1.92845599339112        0.01753698638535
C            0.43854208799020       -1.01874744420943       -0.01778780980560
C            0.97122705257772        0.26571761102552       -0.01594725336241
C            0.15306580757575        1.43320075477539       -0.02323546442756
O            0.55343259684530        2.59532022665853       -0.08966216503239
N           -1.30097845968965        1.11106222638696        0.06698459325396
C           -2.40087144909526        2.13638788756930        0.06778523968109
C           -1.79108828788603       -0.14802227250452       -0.05386453160095
O           -2.98533260819375       -0.36279044355376       -0.13113583029805
N           -0.90154693780444       -1.23757463553044       -0.06256638292414
C           -1.43390661935144       -2.57738070068820       -0.06313708874174
H            3.87750043127257        1.10576751793463        1.04686653568850
H            4.17123287636908        0.88387868672520       -0.68688703584465
H            2.94244269273116        2.05429039895074       -0.13397845269598
H            3.59450991659366       -1.72600842646599        0.08166433121686
H           -1.85614480710199        3.08798489398021        0.09868676968759
H           -2.95721630972586        2.03484537885766       -0.81904716314301
H           -3.59009217709574        2.01867285890191        0.60473317577015
H           -1.12689935146159       -3.10914229341118        0.84057701450890
H           -1.10393192876434       -3.12506439438535       -0.94841116129364
H           -2.51859683247873       -2.48398209546961       -0.07858981199845
H            1.34057158664039       -2.93113674638416        0.02285886248074
