25
 energy: 0.000000000000 xtb: 6.6.1 (8d0f1dd)
C            3.23720163006194        1.16630919979326        0.08434469647475
N            2.29877817382611        0.07527477071623        0.03981603040599
C            2.58028210190900       -1.21425402444508        0.03006176031096
N            1.43813958087363       -1.93419271955128        0.00098261760884
C            0.39035688448383       -1.05887472636071       -0.00790371836672
C            0.93510056364412        0.21347819449412        0.01709077491437
C            0.09450143893243        1.40504303904423       -0.00410947031874
O            0.49712751527797        2.54126714362870       -0.00342325688240
N           -1.25076640035757        1.06271879480407       -0.03085478223738
C           -2.21907211982101        2.15522099834493       -0.05001256985998
C           -1.81739487048744       -0.20012725993278       -0.04692818574614
O           -2.99983886758376       -0.37846417018721       -0.07008878229737
N           -0.92618586207120       -1.30210215599479       -0.03682761578324
C           -1.46982264913417       -2.64643102187190       -0.06029820460571
H            3.71247264356769        1.21471455160235        1.06488849150277
H            4.00791497605742        1.03430808813993       -0.67357694370751
H            2.69910007168542        2.09770118228144       -0.09130154882931
H            3.56654120610678       -1.63682992603973        0.04233140067262
H           -1.67107961066214        3.09322851271934       -0.02552706933167
H           -2.82428953597071        2.09428624779827       -0.95318082946668
H           -2.87644029173232        2.07745725625962        0.81450067533302
H           -1.17061996399332       -3.19584890659852        0.83242232437030
H           -1.14560257411436       -3.17511610292205       -0.95688275822323
H           -2.55549792440841       -2.55659984320617       -0.07459039797972
H            1.38130855184625       -2.94313852034425       -0.01389874181052
25
 energy: -1.961251518063 xtb: 6.6.1 (8d0f1dd)
C            3.27199854850988        1.15937944971964        0.08056831483219
N            2.32305680598453        0.08897176969427        0.03228884301496
C            2.60764759157862       -1.23999508129202        0.03119444235428
N            1.43313551200220       -1.94152981598348        0.00234065212012
C            0.40659048262960       -1.05140790533648       -0.01209465349022
C            0.94413479011652        0.22562803112865        0.00824924305822
C            0.11377731095389        1.40323813184360       -0.00989561536841
O            0.52066763016166        2.56531924488433       -0.01648436905108
N           -1.25742254076832        1.06565476870798       -0.01632392827085
C           -2.25083146575149        2.14721833171370       -0.01847299270692
C           -1.81249189386437       -0.18849525779610       -0.05053140076976
O           -3.00829213800165       -0.37161901409731       -0.07523746546721
N           -0.92422462775061       -1.29009954747784       -0.04194821573808
C           -1.46467845877583       -2.63099986770553       -0.06014366164091
H            3.74877417461402        1.20107621301490        1.06349834482555
H            4.04151579108496        1.01275330878837       -0.67913703527429
H            2.73812864372603        2.08995556995255       -0.09900146224433
H            3.58357760659958       -1.67110149357446        0.04914845318900
H           -1.69010028834433        3.08670528710030       -0.00499555692383
H           -2.85449634173915        2.08488089036070       -0.90142299200559
H           -3.07208702323630        2.07190094132718        0.74645514146736
H           -1.16139128279048       -3.17879982458107        0.83412563685448
H           -1.13783699712534       -3.16538051070111       -0.95420149337248
H           -2.54976703895737       -2.53895691362053       -0.07360352992718
H            1.36282987707999       -2.94526810389823       -0.00734080331772
25
 energy: 8.256625678246 xtb: 6.6.1 (8d0f1dd)
C            3.32385725214660        1.13709897646697        0.07275947178550
N            2.34842183403109        0.09696699095404        0.01875559843384
C            2.62843402508842       -1.26323564647614        0.03409964024843
N            1.42563750311068       -1.93974764968645        0.00582674000735
C            0.42373147376043       -1.03732694367469       -0.01702523819255
C            0.95422037185035        0.24402020149490       -0.00463563171822
C            0.13180961354568        1.40552314406893       -0.01424712271130
O            0.53640007134706        2.57938650551446       -0.04218149797943
N           -1.27413641417905        1.08018897297428        0.01731773579534
C           -2.30471538194852        2.13979724754526        0.01826978123763
C           -1.80160236115855       -0.17010384569583       -0.04631987910289
O           -3.00156037360520       -0.36454447100093       -0.08616772936391
N           -0.91847459098268       -1.26813649171918       -0.04880224628963
C           -1.45379773242604       -2.60677034220396       -0.06072929771202
H            3.80506378780086        1.17197859127446        1.05650222298647
H            4.09554227266456        0.97259009866266       -0.68468567073771
H            2.81093493652681        2.07746705381696       -0.11123742457848
H            3.59407025953674       -1.70609664670403        0.06103890164476
H           -1.74089070363434        3.08070001681706        0.04738605787892
H           -2.89169879333380        2.07055443128003       -0.86501225806576
H           -3.31065164112739        2.04296841808813        0.65967398096990
H           -1.14742492922889       -3.15101416103711        0.83630878129994
H           -1.12599405435498       -3.14892753607318       -0.95118102089972
H           -2.53845065884744       -2.51315208310581       -0.07302999568925
H            1.34348890135392       -2.94115622940879        0.00434999690011
25
 energy: 14.914417970948 xtb: 6.6.1 (8d0f1dd)
C            3.36751163323083        1.11205079815178        0.06576773099298
N            2.36246091211389        0.09779613833665        0.00918783539200
C            2.63261637624808       -1.27090487203855        0.03803089382990
N            1.42264790877124       -1.93288097830243        0.01159023966265
C            0.43203612157428       -1.02405687286054       -0.01969080682056
C            0.96127549126275        0.25965203601051       -0.01382854529658
C            0.13492632266911        1.41879741911467       -0.01915203383165
O            0.53524921684908        2.59175606982687       -0.06238725539870
N           -1.29190495878365        1.09691188873351        0.04023332515188
C           -2.36100938889065        2.13274790560391        0.04007010243070
C           -1.79715583698531       -0.15858255432787       -0.04735020656049
O           -2.99589810557713       -0.36576045063777       -0.10125613382484
N           -0.91128527654581       -1.25001248573741       -0.05517119855606
C           -1.44287358897509       -2.58829778130479       -0.06157920380912
H            3.85133211144113        1.13677725242742        1.04966293672019
H            4.14145437644386        0.92588275107498       -0.68673941267072
H            2.88627475657748        2.06885635620526       -0.12322683547213
H            3.59424093055729       -1.72382363151740        0.07376588338228
H           -1.81409757358660        3.08140624987629        0.09291265905752
H           -2.91826350238821        2.05846508820340       -0.86237357571670
H           -3.43529722101353        2.01041090046046        0.62655030305532
H           -1.13567803501956       -3.12613877102663        0.83915369666038
H           -1.11326631071065       -3.13362248841550       -0.94924827618199
H           -2.52747860494790       -2.49372168833727       -0.07528281566299
H            1.33439691362133       -2.93467967734757        0.01739458961406
25
 energy: 15.898131278510 xtb: 6.6.1 (8d0f1dd)
C            3.38770915323656        1.09750333051498        0.06235649637732
N            2.36593973832940        0.09796610702523        0.00549469324541
C            2.62966886046158       -1.26796432050023        0.04029510384101
N            1.42267375333680       -1.92658390974696        0.01606647329874
C            0.43327592107810       -1.01672672619113       -0.01926319153231
C            0.96320578439191        0.26763712697748       -0.01657738915432
C            0.13315668736488        1.42843129925352       -0.02175234382212
O            0.52962767828735        2.59692302569121       -0.07275940252758
N           -1.30228380042076        1.10417916639487        0.05017366939569
C           -2.38927374906390        2.12935323981699        0.04766892918810
C           -1.79792583979527       -0.15559324978673       -0.05009493532498
O           -2.99421776637306       -0.37013806750777       -0.11441076796707
N           -0.90772338269040       -1.24190248767647       -0.05844385440826
C           -1.43661375463278       -2.58154729864152       -0.06220851763714
H            3.87127646723961        1.11480074724368        1.04658266870397
H            4.16084083630228        0.89628120435961       -0.68761269587968
H            2.92808217766568        2.06416840778570       -0.12997639388610
H            3.59076267820441       -1.72442094882083        0.08064277203523
H           -1.85608483139761        3.08323738554147        0.11207168134046
H           -2.93032327610563        2.05632938246958       -0.86340069943916
H           -3.46702260818196        1.99650691528791        0.62301781891695
H           -1.12954196403791       -3.11493048245956        0.84079380232094
H           -1.10479191682612       -3.12724450287448       -0.94824321164306
H           -2.52140495788885       -2.48832021240289       -0.07803469674159
H            1.33320277945201       -2.92891652958167        0.02464788744687
25
 energy: 14.938651513478 xtb: 6.6.1 (8d0f1dd)
C            3.39240216449063        1.09260135169838        0.06105741189240
N            2.36524173620324        0.09867023893118        0.00438621543552
C            2.62642554256873       -1.26330885497925        0.04072982774385
N            1.42299533770254       -1.92314926300825        0.01825622335338
C            0.43185071050855       -1.01419128129882       -0.01727354444475
C            0.96246587528809        0.27031261052105       -0.01559457272094
C            0.13198100373530        1.43222606117001       -0.02141572970442
O            0.52547470488304        2.59832814242609       -0.07800431396073
N           -1.30651992469753        1.10468859890942        0.05499987289370
C           -2.39647461625052        2.12812153882658        0.04898664175318
C           -1.80021561613348       -0.15593419042076       -0.05120952833271
O           -2.99480240044711       -0.37276918848871       -0.12166527883223
N           -0.90754337710531       -1.23999479576634       -0.05884626382642
C           -1.43460857267556       -2.58109524396080       -0.06230515631632
H            3.87504503126650        1.10703120943997        1.04553894521430
H            4.16381759282196        0.88522391621379       -0.68831741694320
H            2.94170868270784        2.06216494770783       -0.13249912351925
H            3.58805871221818       -1.71984980591632        0.08245505708116
H           -1.86759874046071        3.08295526742867        0.11950451158816
H           -2.92995925348790        2.05874093305997       -0.86634134909503
H           -3.46312577591799        1.99261726473485        0.62412577733365
H           -1.12747796662470       -3.11277661158819        0.84135051976984
H           -1.10113648842237       -3.12617985360296       -0.94778950551263
H           -2.51955208492448       -2.48972269116167       -0.07950325735036
H            1.33376239068932       -2.92568169870370        0.02640793264716
25
 energy: 14.160738999928 xtb: 6.6.1 (8d0f1dd)
C            3.39248699509249        1.09164944755908        0.06030170836119
N            2.36417510562404        0.09957292048260        0.00345485213934
C            2.62458210477533       -1.26037898625325        0.04041071788873
N            1.42296170660448       -1.92173908407770        0.01931260111109
C            0.43047168147698       -1.01361167527136       -0.01525130862392
C            0.96121180085175        0.27120930487975       -0.01416549311724
C            0.13209282165654        1.43326416426078       -0.02071068596746
O            0.52281907023481        2.59906243954100       -0.08157427765026
N           -1.30838873577201        1.10323512272113        0.05883538098470
C           -2.39671992439287        2.12763604262610        0.04992851108574
C           -1.80203736721364       -0.15666162588685       -0.05154613187058
O           -2.99576222234631       -0.37410512157860       -0.12562233493670
N           -0.90836174708016       -1.24005012350783       -0.05827162520027
C           -1.43425435494402       -2.58201944037533       -0.06198806239807
H            3.87447209472383        1.10538192051775        1.04502140506290
H            4.16301588730359        0.88205853872747       -0.68878197177078
H            2.94501522640034        2.06189413478179       -0.13382118309726
H            3.58668284055182       -1.71643122050905        0.08268244329527
H           -1.86814952524811        3.08210751596602        0.12522549276304
H           -2.92465425338609        2.06245824774717       -0.86917416144911
H           -3.45720540186739        1.99040491344644        0.62203964801321
H           -1.12690262815049       -3.11323204994395        0.84173774974019
H           -1.09986445759191       -3.12655718847886       -0.94740352926036
H           -2.51925700326335       -2.49182585175639       -0.07983477315764
H            1.33378495389665       -2.92429374344588        0.02622892420157
25
 energy: 13.823290208826 xtb: 6.6.1 (8d0f1dd)
C            3.39155612181151        1.09211564791952        0.05981124490679
N            2.36362449280404        0.10013243685292        0.00239703385130
C            2.62402577086438       -1.25938274691876        0.03971189268380
N            1.42287450376518       -1.92151479533172        0.01977685756253
C            0.42979985249214       -1.01384338149330       -0.01382461608872
C            0.96029777012962        0.27137781993656       -0.01320157869754
C            0.13288957777254        1.43312140978142       -0.02051007456895
O            0.52118706289829        2.59948645387941       -0.08370765579778
N           -1.30921828899767        1.10171079610464        0.06165538595757
C           -2.39544917327196        2.12741004888468        0.05123258981676
C           -1.80296345608976       -0.15714129776663       -0.05164258459779
O           -2.99639678600865       -0.37484319738478       -0.12779223529408
N           -0.90900576086552       -1.24063685392788       -0.05750239245504
C           -1.43443194647766       -2.58284661834042       -0.06146826304269
H            3.87312173454282        1.10617769250591        1.04477406695466
H            4.16212922569404        0.88227259214050       -0.68894594347756
H            2.94446967275994        2.06231478389162       -0.13468437324258
H            3.58631434743906       -1.71513688531010        0.08252587437009
H           -1.86603542063408        3.08126227999480        0.12999974212693
H           -2.91891886254538        2.06660575835312       -0.87097438228189
H           -3.45490187353421        1.98869156748250        0.61799080835119
H           -1.12689236887143       -3.11410388584602        0.84215742317765
H           -1.09986286481596       -3.12716940528625       -0.94699833885908
H           -2.51944082943337       -2.49299844998075       -0.07941455381372
H            1.33344216650833       -2.92403316796904        0.02566796860546
25
 energy: 13.782091900346 xtb: 6.6.1 (8d0f1dd)
C            3.39071120171132        1.09288632164092        0.05960460230462
N            2.36365470483074        0.10010123186887        0.00147985619171
C            2.62431645404509       -1.25976632821419        0.03884507145215
N            1.42291548421360       -1.92186338696229        0.01983745131923
C            0.42979680731046       -1.01432365179977       -0.01326428187611
C            0.96004369758447        0.27115174988434       -0.01285204594492
C            0.13370906518077        1.43263512550238       -0.02071369135858
O            0.52052677620107        2.59959228794732       -0.08421954876401
N           -1.30938154912588        1.10091961310657        0.06271679175565
C           -2.39457974600265        2.12732712270937        0.05226411452815
C           -1.80306693940083       -0.15726895423269       -0.05170574673841
O           -2.99652146766748       -0.37518876735553       -0.12853286297170
N           -0.90912815275591       -1.24118601442782       -0.05687279937721
C           -1.43471398270324       -2.58319845524838       -0.06095594214025
H            3.87202055103262        1.10760920445589        1.04475571326053
H            4.16184096853807        0.88386588110841       -0.68888040751412
H            2.94252076399676        2.06271300241748       -0.13506266670267
H            3.58654741426598       -1.71550864407296        0.08239540513152
H           -1.86441703662317        3.08075020267040        0.13300389153322
H           -2.91519801376436        2.06995653673388       -0.87186795176245
H           -3.45519153534698        1.98754800820479        0.61450284634071
H           -1.12710939726916       -3.11469880449168        0.84254135207616
H           -1.10049799797306       -3.12759817136501       -0.94663670952577
H           -2.51971193698592       -2.49307923310846       -0.07867983169639
H            1.33312853464399       -2.92434727479985        0.02533128662626
25
 energy: 13.844561101240 xtb: 6.6.1 (8d0f1dd)
C            3.39027838933585        1.09344137272214        0.05959833545088
N            2.36401517377851        0.09966184358708        0.00074885035730
C            2.62489998745620       -1.26068474891311        0.03784731021029
N            1.42304120855600       -1.92227867860835        0.01968866890730
C            0.43010773530690       -1.01469476408743       -0.01332797252081
C            0.96029645983394        0.27082326145999       -0.01291557585020
C            0.13422058901280        1.43225271290066       -0.02102413160624
O            0.52054893845416        2.59951623298439       -0.08371458044606
N           -1.30922736980808        1.10086906181325        0.06220002567415
C           -2.39456090520144        2.12731275118508        0.05271848275438
C           -1.80275810929848       -0.15715799314903       -0.05173046524989
O           -2.99631604084786       -0.37533888643627       -0.12833514718622
N           -0.90887693416350       -1.24148842879595       -0.05638433976989
C           -1.43490008775381       -2.58316217022601       -0.06054548982532
H            3.87141280737969        1.10862965729178        1.04486578176535
H            4.16203909557430        0.88550634685957       -0.68871600119403
H            2.94066924394214        2.06286048234456       -0.13504736371242
H            3.58694247627486       -1.71657333582586        0.08257998063995
H           -1.86414023408442        3.08059535176252        0.13458302419324
H           -2.91374787156121        2.07222331538114       -0.87231591925275
H           -3.45628545353047        1.98669619612012        0.61242277366915
H           -1.12732232911163       -3.11493325501978        0.84283605583750
H           -1.10119778478537       -3.12773700664419       -0.94635333020454
H           -2.51988795605649       -2.49256268665343       -0.07797722722782
H            1.33296363923373       -2.92474802988088        0.02533215073399
