  72
        -99.35737812
 N         -1.6697767560        3.2521690971        2.3265087937
 C         -1.6693874875        2.5188089797        1.3164179876
 C         -2.8340263451        2.3496663122        0.3811236053
 C         -3.3396462457        0.9165487022        0.4533831786
 C         -4.2739818282        0.4706189488       -0.4784423800
 C         -4.7654937526       -0.8314216248       -0.4306801383
 O         -5.6748691465       -1.3399670775       -1.2884213564
 C         -6.2527284615       -0.5055518301       -2.2646213226
 C         -4.2986372701       -1.7067895750        0.5583042431
 O         -5.1703525907       -5.5609186116        0.5338800621
 C         -5.6211565243       -6.6193912154        0.8618589352
 C         -3.3828210910       -1.2600050007        1.4854162790
 C         -2.9028180889        0.0427038410        1.4407968620
 C         -2.2818745809        2.6504429557       -1.0377196428
 C         -1.4208854890        1.5267512291       -1.6433264847
 C         -0.0929475002        1.3788488432       -1.0082128569
 N          0.4666701761        0.2289707777       -0.6601547365
 C          1.8526869286        0.1811548842       -0.2577702473
 C          2.7616092942       -0.2853406032       -1.4118696133
 C          4.2017127435       -0.2307634429       -0.9854860171
 C          4.9324027111        0.9385744023       -1.1234877764
 C          6.2531939489        1.0038319204       -0.7085798407
 C          6.8705671653       -0.1019449864       -0.1412521907
 O          8.1427309955       -0.1537754891        0.2931365516
 C          8.9612666900        0.9859675548        0.1628181210
 C          6.1275422574       -1.3061908254        0.0079089736
 O          6.8034501230       -2.3305917437        0.5634508972
 C          6.1635385640       -3.5742500712        0.7235852465
 C          4.8071896947       -1.3463419947       -0.4126329530
 C         -0.2378216078       -1.0277284505       -0.7548954718
 C         -4.0255211431        3.3002264135        0.6995270959
 C         -4.6486145318        2.9795450707        2.0559568827
 C         -3.6502660196        4.7779832381        0.6412017193
 H         -4.6278187057        1.1490856480       -1.2374299867
 H         -6.7584137087        0.3524122731       -1.8115142496
 H         -6.9859993384       -1.1215998428       -2.7812910625
 H         -5.5078210514       -0.1535417499       -2.9860400182
 H         -4.6804761631       -2.7148338759        0.5781514016
 H         -6.4662895965       -6.7120499705        1.5606873752
 H         -5.2255674025       -7.5786956024        0.4868423753
 H         -3.0397500105       -1.9293447701        2.2592906907
 H         -2.2076592349        0.3784286104        2.1949781954
 H         -3.1209953677        2.8277612393       -1.7097357831
 H         -1.6935363645        3.5681255927       -0.9974624775
 H         -1.9769452131        0.5912529127       -1.6296440827
 H         -1.2485387314        1.7990498945       -2.6929393748
 H         -0.7842211599        1.9504634194        0.9677139201
 H          0.5313324488        2.2584655209       -0.9472036161
 H          1.9577465164       -0.5025507734        0.5885082836
 H          2.1723557295        1.1746603125        0.0635617415
 H          2.6031428019        0.3720542696       -2.2686738102
 H          2.4926992035       -1.3016620572       -1.7016247971
 H          4.4783996265        1.8098162564       -1.5707698819
 H          6.7979393023        1.9246831492       -0.8366164696
 H          8.5674224086        1.8297284812        0.7375801832
 H          9.0759365784        1.2785731834       -0.8851426161
 H          9.9302839881        0.6968531817        0.5649094807
 H          6.9093062137       -4.2313123624        1.1666861735
 H          5.3031560742       -3.4994467823        1.3962973764
 H          5.8430243645       -3.9872813466       -0.2378404897
 H          4.2376539289       -2.2568397680       -0.3109753735
 H         -0.4472582423       -1.2863746596       -1.7947589164
 H         -1.1822208159       -0.9797856139       -0.2071835426
 H          0.3715769946       -1.8147656643       -0.3190421143
 H         -4.7832897788        3.1136424129       -0.0702292965
 H         -3.9350085826        3.1760566103        2.8498377097
 H         -4.9608025925        1.9393407418        2.1113145424
 H         -5.5221184397        3.6071515986        2.2121941404
 H         -2.8919001045        5.0030413788        1.3843844095
 H         -3.2871352672        5.0671387332       -0.3413560476
 H         -4.5298689458        5.3775509136        0.8604403489
 H         -0.8146357471        3.3197944604        2.8692398851
