25
 energy: 54.371918287674 xtb: 6.6.1 (8d0f1dd)
C            3.42819949300101        1.77775590827065        0.10193602270927
N            2.74743531697979        0.42399942747820        0.00299828062439
C            3.17493943100098       -0.85192490682808        0.07234354341492
N            2.13604135988524       -1.72734615046236        0.05614793054397
C            0.94642888250151       -1.01676324923506       -0.01703683426958
C            1.37338034504959        0.32258237448535       -0.05398240446569
C            0.38941700126391        1.35545350896463       -0.08174953999220
O            0.62506834119824        2.55794786810555       -0.09237887135417
N           -0.87214421570932        0.81920143557485       -0.07901818936494
C           -1.92813605544278        1.82628495273666       -0.05285869846652
C           -1.26141248667065       -0.55663551222932       -0.07451267260054
O           -2.46238217772964       -0.68551415332354       -0.08899325727760
N           -0.26306319246187       -1.52808386748946       -0.04217798646588
C           -3.60211288578106       -3.38281023029001       -0.09249726879737
H            4.27684616073688        1.73616292863628        0.78113724251335
H            3.84870993865444        2.25538179646756       -0.81040604232890
H            2.71633073815702        2.53551730806540        0.45786349057527
H            4.19454618977994       -1.21524498796233        0.11770917959664
H           -1.38684420435744        2.75603470082030       -0.05232884313789
H           -2.56683339818021        1.77007988495763       -0.93029547739851
H           -2.53047100315499        1.75562354682684        0.85019847793709
H           -3.73803901789299       -3.85389317062046        0.83132967010303
H           -3.65318727395311       -3.90002842062667       -0.99779023978913
H           -3.70126828069678       -2.33647147924470       -0.12254006234390
H            2.14567217224305       -2.74110950209925        0.12220473716639
