25
 energy: 62.090764992051 xtb: 6.6.1 (8d0f1dd)
C            3.23195045371516        1.47738958617851        0.13959029713941
N            2.49966319709284        0.18505724516167        0.02014578062029
C            2.87545843976247       -1.12390825118862        0.04526448174657
N            1.76374406758478       -1.93223448231651        0.03082608259427
C            0.60782997118589       -1.17731968670776       -0.03632321523235
C            1.11377413144288        0.14588091247833       -0.05905823627087
C            0.23823500340725        1.27549456603328       -0.09551962299085
O            0.56853477249821        2.45886258999075       -0.12087972760288
N           -1.07949221905801        0.88164870836593       -0.08037630713748
C           -2.07778511211455        1.94941047956591       -0.05225803385080
C           -1.57040929224877       -0.42930338623259       -0.08671818419181
O           -2.79263919029235       -0.41014374462503       -0.09393801866436
N           -0.70066822256567       -1.53951853647471       -0.07110007339547
C           -2.57089414384238       -2.95923772285777       -0.07234498445648
H            3.97417708726171        1.48629426292754        0.95131675877071
H            3.77084503283550        1.78682199970615       -0.77429638778366
H            2.49968617762554        2.27840730226901        0.36568689572433
H            3.87179300756378       -1.53013945162352        0.11416901286835
H           -1.47310768051572        2.85247120398321       -0.03058126553444
H           -2.70891008267286        1.90751419549049       -0.93863667398434
H           -2.71347125729754        1.87714295859311        0.83219884609188
H           -2.44384344000850       -3.43260722428656        0.85886823626051
H           -2.39032130994869       -3.45232079658527       -0.98434250761269
H           -3.13350120841711       -2.06709161223945       -0.09719407363844
H            1.75056040405807       -2.94264675452163        0.07981359154447
