25
 energy: 46.963099347446 xtb: 6.6.1 (8d0f1dd)
C            3.50636178915246        1.80525018385788        0.09212544373706
N            2.79766831533935        0.47701372840225        0.02154389741714
C            3.23231623885089       -0.79085102140323        0.07642593705688
N            2.20174014164236       -1.66732938860259        0.05308286805317
C            1.01010077289114       -0.95703949937164       -0.00849491730895
C            1.41852558308154        0.38570307254441       -0.02972742547865
C            0.41225103980482        1.40366448483862       -0.05312822360451
O            0.62241941058344        2.61047235210896       -0.05682392840540
N           -0.84022867384342        0.84145220504330       -0.05817777446450
C           -1.92988808619935        1.80187064855406       -0.05618515582705
C           -1.20794613338607       -0.54492773341443       -0.06682456219010
O           -2.40065315367462       -0.73801201991282       -0.09050533943198
N           -0.19424133807492       -1.47289131789963       -0.03652266423611
C           -3.80677273627403       -3.55665139599568       -0.10124641949700
H            4.30911291104350        1.81662773703817        0.83595717021733
H            4.00091995114684        2.14009873292848       -0.83233491988611
H            2.77437775734724        2.58265176342671        0.32402878294615
H            4.25566609995467       -1.12697317293758        0.11375291530429
H           -1.45516424845245        2.76801488368657       -0.04951352681935
H           -2.55755964567845        1.71457100238328       -0.94056385168629
H           -2.53944120840569        1.70123447341123        0.83795045474211
H           -4.05230770158590       -3.99415099396947        0.81883457228474
H           -3.96893810235495       -4.03302733574790       -1.01740380642909
H           -3.66673287376518       -2.51630609566375       -0.11978676955238
H            2.20104677473544       -2.67598816684962        0.09444863801214
