72
 energy: -99.650260950847 xtb: 6.6.1 (8d0f1dd)
N           -2.02822661609703        3.18101750730897        2.43351287939038
C           -1.83481799052037        2.35349734507793        1.51129246367815
C           -2.81240173155846        2.12623582424917        0.38949265869814
C           -3.36723329661936        0.71084979716662        0.47097491008731
C           -4.21205132469969        0.23510495748680       -0.53453930968572
C           -4.75484649404235       -1.03483167456108       -0.48516109291252
O           -5.61222317540816       -1.55912347073987       -1.40585044874734
C           -6.11231583165296       -0.72434603269237       -2.41870786269606
C           -4.42685370182884       -1.89434004509274        0.58681352882783
O           -4.99088341224884       -3.13349829577949        0.53948568790009
C           -4.74303917659211       -4.02584733761552        1.59443104076168
C           -3.58778789897121       -1.42568095334603        1.57898266628559
C           -3.07455487018702       -0.13422887496248        1.52458104832413
C           -2.01712855539020        2.29236249658877       -0.93539178786209
C           -1.06299812252554        1.13496662005772       -1.29306277154187
C            0.17911781022741        1.08889776810466       -0.45677876260005
N            0.75072586276910        0.01304930191477        0.07028135719826
C            1.92379019786098        0.01700759379220        0.69665350067270
C            3.59207873361673       -0.84779974660804       -2.55735806563254
C            4.68027702767990       -0.65817352090165       -1.73423713253884
C            5.33489658687719        0.59793327475497       -1.65353292598348
C            6.43406039718650        0.78352361204971       -0.85363590315583
C            6.94821365514274       -0.26162382914235       -0.09000324720522
O            8.02081631526154       -0.18197887782995        0.74736456904431
C            8.74034055514458        1.02109748305515        0.81810316455632
C            6.32591647466549       -1.53587151462791       -0.15246260810621
O            6.90370996120962       -2.49376905459174        0.63100796316364
C            6.38893704055198       -3.79580007726871        0.59757219304271
C            5.22964154950084       -1.71908599765145       -0.95374282518129
C            0.04799001912993       -1.25897535681470       -0.04481105534211
C           -4.01043117644286        3.11855626231754        0.41632458164043
C           -4.87431364465637        2.92433339773790        1.66166940148103
C           -3.58748577015688        4.58266856787528        0.30747952449706
H           -4.45864554669374        0.87638075657324       -1.36507386919030
H           -6.60283001424085        0.16263831217001       -2.00620860716644
H           -6.84593961045590       -1.32397809632925       -2.95560445061393
H           -5.32777925664865       -0.41194748747588       -3.11603616168292
H           -5.09191085090864       -3.62562395787408        2.55241864325699
H           -5.30998448551234       -4.92429020612987        1.35669683914183
H           -3.68018629867237       -4.28084442931537        1.66918888093980
H           -3.32487367868022       -2.05373927161925        2.41507175207177
H           -2.44842440306621        0.20465485014630        2.33444080888902
H           -2.73233461344954        2.40002871562075       -1.75372305346394
H           -1.44227052751539        3.21792102111930       -0.88543200313580
H           -1.61383349079392        0.19660939170802       -1.25190704859184
H           -0.77281228200840        1.29028646493271       -2.34112009983803
H           -0.93077267011523        1.75006936129984        1.45291102195446
H            0.75620342408793        1.99775914483447       -0.38947986115784
H            2.28593778367678       -0.86626933953569        1.17488988373934
H            2.46157388041268        0.94010427012678        0.80705403385602
H            3.20371226125020       -0.04597164015950       -3.16002948455937
H            3.13586895934049       -1.81398706699469       -2.67547920155819
H            4.93627040043632        1.42051241487825       -2.22511182873966
H            6.87737456817033        1.76400274970713       -0.80076684674660
H            8.13559977357258        1.82589132848031        1.25287339825814
H            9.11323253936426        1.33312166064691       -0.16466118774466
H            9.58559811546977        0.82011544502083        1.47598655381108
H            7.00030040676646       -4.37356581269515        1.28718039140839
H            5.34166785562280       -3.83994602821421        0.90879301446514
H            6.48191421037179       -4.23140395086338       -0.40661698853513
H            4.74543864073327       -2.67925700587952       -1.02199437041736
H           -0.03997984233421       -1.57271506053358       -1.08393096869565
H           -0.95024777945552       -1.17209537791961        0.39317613957782
H            0.59997535396089       -2.02529693457256        0.49189160526930
H           -4.63128014700818        2.89067888147936       -0.45932263252151
H           -4.30033204648367        3.17236596106966        2.54724824883502
H           -5.22315600641018        1.89696175833815        1.73684144386372
H           -5.74529456260026        3.57492625315626        1.61217456222523
H           -2.94340182019300        4.84751116189908        1.13613443469508
H           -3.07365273897898        4.78295985167689       -0.62938669017757
H           -4.46924089453777        5.21801286138605        0.34845884115423
H           -1.27787168035755        3.25137043972170        3.11745301442547
