25
 energy: 87.832115440925 xtb: 6.6.1 (8d0f1dd)
C            3.28069745149189        1.14727550295476        0.12805881859640
N            2.32261753219395        0.08670082031099        0.05985010342618
C            2.65140755694184       -1.21058590080827        0.09474953128212
N            1.52695735639478       -1.97733515784796        0.04825251683591
C            0.38583702392384       -1.15571655637967        0.03143828741720
C            0.92698128638032        0.16687128347781        0.04435788348320
C            0.21253352876295        1.32304800471180        0.02118267801679
O            0.53916663564413        2.48446064337465       -0.07223275758001
N           -1.71642425324282        0.98391555397637       -0.13997702975323
C           -2.21316692279715        2.32636903037560        0.17374990696505
C           -2.71777902190556        0.40626150053592       -0.68770528400885
O           -3.53638332854894       -0.34094060706834       -1.07921646831583
N           -0.86246148741058       -1.40188384872132       -0.00456206605803
C           -1.32138899226999       -2.75286088406533        0.02633068514027
H            3.78698398839224        1.16605697688865        1.09649946767752
H            4.03971295889543        0.99433943857177       -0.64036791476055
H            2.78895416860881        2.10469549714970       -0.03877155486118
H            3.65294626290760       -1.58107306612079        0.08484807731622
H           -1.77257942872077        3.09761655571908       -0.44850783432559
H           -3.25211852825956        2.17008650890669       -0.05463238100013
H           -2.14862109658013        2.53779390851330        1.23451394592598
H           -0.89259765140961       -3.25270822656595        0.89731098297881
H           -1.02270559725319       -3.29138771119527       -0.87559188114148
H           -2.41096281774165       -2.78207236052519        0.10216590526203
H            1.53864486519915       -2.97657456046786        0.05813324544595
