25
 energy: -5.752807234870 xtb: 6.6.1 (8d0f1dd)
C            3.24735791332338        1.17405132855964        0.08634520036693
N            2.30297102861490        0.10523305931878        0.03811538976072
C            2.59951204349675       -1.23955308381266        0.03771710283887
N            1.41304855117974       -1.93604413092017        0.01464437312456
C            0.38446816952915       -1.05943467996012        0.00272245345977
C            0.91308525497024        0.22346463462767        0.02273840877064
C            0.10357195675873        1.37281033992407       -0.00182050729790
O            0.49573470160623        2.54569456341200       -0.00509086132107
N           -1.29699216582362        1.03992940641036       -0.03773035374992
C           -2.21954907061334        2.15902182007919       -0.02763994468981
C           -1.86522639667152       -0.19590471683190       -0.12209268352271
O           -3.06033031096236       -0.38912043951214       -0.17048206411768
N           -0.96138049675713       -1.29366459491229       -0.05126898615963
C           -1.46514266312153       -2.64725458896023       -0.05304667461993
H            3.73135102450804        1.21964782963946        1.06657673418433
H            4.01690838741242        1.03739278824800       -0.67794313013729
H            2.70912539506600        2.10376578554498       -0.08789925400567
H            3.57987663297134       -1.65148972807349        0.04242569418936
H           -1.64641028067963        3.08515117965641       -0.06865486903597
H           -2.87676461355939        2.07482315635391       -0.88746538940305
H           -2.82898031357219        2.12469484555964        0.87456114511827
H           -1.14382909380689       -3.19241571085838        0.83932431391564
H           -1.13588694689936       -3.18227611836859       -0.94775074360995
H           -2.55042227170477       -2.57613159754097       -0.05735732215252
H            1.37180203916436       -2.94088677601434        0.00342058923815
