25
 energy: -3.341752328219 xtb: 6.6.1 (8d0f1dd)
C            3.25286252348387        1.17459220524699        0.08745512389374
N            2.30049186399732        0.10877515003816        0.03905757913231
C            2.59839775876873       -1.24011438205269        0.04431126472958
N            1.40491596451448       -1.93401265310057        0.02722217637549
C            0.36780470427309       -1.06043680985281        0.00805414418652
C            0.90417350410544        0.21846200052438        0.02586340883068
C            0.08785846200176        1.35582467411474       -0.01309853296773
O            0.48586777497468        2.52735163969440       -0.02846552499898
N           -1.33029325617093        1.02948821114231       -0.05154133361460
C           -2.21975172504152        2.17024399328705       -0.00691540682194
C           -1.91681488590674       -0.19303708342232       -0.19554461080020
O           -3.10629232853618       -0.39427727367289       -0.27065916203104
N           -0.98694497450434       -1.28618866877165       -0.06353184503080
C           -1.45854134946989       -2.65247613178663       -0.04643886061044
H            3.74186763376559        1.21785115574040        1.06622469355391
H            4.02366573784589        1.03653329454378       -0.67756846776936
H            2.71903898865717        2.10707073724288       -0.08466742811672
H            3.58377803635242       -1.65130791943903        0.04060478769603
H           -1.63439878263129        3.08660381079306       -0.11354239039714
H           -2.92968184311341        2.05861806215304       -0.81641227880786
H           -2.77555176414648        2.17220944534194        0.93084478505014
H           -1.11835097110843       -3.19035676770769        0.84536007825146
H           -1.12625064979113       -3.19104039250637       -0.93865786681319
H           -2.54358556821751       -2.60298759589044       -0.04209263897658
H            1.37838757218834       -2.93967104859675        0.02031232387964
