25
 energy: 6.116498254458 xtb: 6.6.1 (8d0f1dd)
C            3.26220924101022        1.17268692012326        0.09294952988651
N            2.29270758208048        0.11333091033683        0.05551737446151
C            2.59316478324633       -1.24071072156706        0.07668136181115
N            1.39714559327224       -1.93630505665823        0.03041938040735
C            0.34078420544010       -1.06950420888746       -0.01034694747545
C            0.88902291183211        0.20328039833755        0.02149283774591
C            0.05396003184410        1.32855062120162       -0.05575782845279
O            0.45356741787018        2.49636486590266       -0.05136990826202
N           -1.39644711896436        1.02262382407197       -0.12313302222324
C           -2.22277488602820        2.19642258023051        0.02339375128049
C           -2.01542011794895       -0.17548950008764       -0.35314120829590
O           -3.18920049563859       -0.40539766959362       -0.47595638653176
N           -1.03218004651063       -1.27376155662998       -0.10467322014901
C           -1.44437419458901       -2.66047337124204       -0.03912822177985
H            3.76270997329073        1.21883635112041        1.06675604145724
H            4.03579153502599        1.02954768095365       -0.67166411761833
H            2.73729203994196        2.10984010119742       -0.08082624585591
H            3.58880796291650       -1.64055700789165        0.05205662744214
H           -1.62725655760864        3.09015177057236       -0.20530864549477
H           -3.03729752029875        2.04622146037456       -0.66985659013239
H           -2.65698053342745        2.26085062344556        1.02679627383171
H           -1.06643131629637       -3.17725550348394        0.85443817000131
H           -1.10343039551127       -3.20521184522185       -0.92520103284742
H           -2.52831872607326       -2.65495085006750       -0.01472097718927
H            1.39942512122087       -2.94314108168391        0.04153163483896
