25
 energy: 13.362943047848 xtb: 6.6.1 (8d0f1dd)
C            3.26559185730043        1.16818155035689        0.09949752564391
N            2.28707873605666        0.11125695716983        0.06396054019024
C            2.58754792065457       -1.23758383854351        0.09139535396315
N            1.39993687074248       -1.93975342299072        0.02462608970721
C            0.33353610215683       -1.07852508352089       -0.02987036401167
C            0.88291802001639        0.19512639495417        0.00379161170605
C            0.04451512600407        1.31338705795420       -0.08063532224841
O            0.43354008439718        2.48365029166466       -0.04805463366970
N           -1.42823950333109        1.02337943774129       -0.16717094624700
C           -2.22376488490553        2.20941068388572        0.04026744670894
C           -2.07074609861347       -0.15059420198925       -0.42608981596039
O           -3.23112334342824       -0.40784124856087       -0.57447331347058
N           -1.04246248654466       -1.27547413125988       -0.12689084326110
C           -1.43456631406304       -2.66566420989010       -0.03459880531837
H            3.76952188918146        1.21357619658938        1.07211361845079
H            4.04153315924341        1.02076033337206       -0.66314361877153
H            2.74748511523113        2.10947724309520       -0.07576930882066
H            3.58646504377269       -1.62978765144933        0.06347430805094
H           -1.63794406132241        3.09255123688953       -0.25092368583790
H           -3.08660041809046        2.04647602491894       -0.58729143647133
H           -2.59053978280334        2.30003718119771        1.07213424635246
H           -1.03898488619860       -3.16656783923623        0.86238332773809
H           -1.09147836433199       -3.21774926383752       -0.91563808990686
H           -2.51796370026152       -2.67919668812412       -0.00006464841642
H            1.41337153502998       -2.94625994879995        0.04704201651536
