25
 energy: 83.314850677965 xtb: 6.6.1 (8d0f1dd)
C            3.28043038041158        1.14632301484499        0.12262180753961
N            2.30967700328467        0.09340424811640        0.06763657808701
C            2.63507313061420       -1.20879599377414        0.10091599182727
N            1.50620204611086       -1.97102861826283        0.04101683262338
C            0.37204492019672       -1.14982025134281        0.02239946872099
C            0.91498584234891        0.16918291834847        0.04237254566231
C            0.18474247372152        1.31135182087575        0.01362804855673
O            0.49784765709155        2.47867026661410       -0.06238829638331
N           -1.66814089705006        0.99340800915934       -0.13241834452092
C           -2.21357631717330        2.31212036881941        0.15725741110337
C           -2.62466366503236        0.34334517148541       -0.66251280988209
O           -3.44639738056321       -0.37838467418689       -1.06769296525210
N           -0.88668055521016       -1.38158644673702       -0.01613847214897
C           -1.34211186411452       -2.73400649658615        0.01949162724428
H            3.79604496748233        1.17069763752037        1.08963442771654
H            4.03757023643904        0.98395944652158       -0.64721052339525
H            2.79597700471308        2.10796470556407       -0.04801261404181
H            3.63683340807882       -1.57729846764926        0.08033232405856
H           -1.74484274321038        3.09870811315432       -0.42516277620372
H           -3.23212409125232        2.14600091673207       -0.14676792891249
H           -2.23873367413752        2.50873760952751        1.22421707395815
H           -0.91303350199646       -3.22402936761098        0.89511667456756
H           -1.03609083102762       -3.27308631719737       -0.88041973632927
H           -2.43415753772293       -2.76855936487192        0.08816899029502
H            1.52202665084753       -2.97031103143968        0.05659956030512
