25
 energy: -42.443246798903 xtb: 6.6.1 (8d0f1dd)
C            3.32022643172833        1.11458363952111        0.06843806036325
N            2.37227176964035        0.03980613753878        0.03709378873719
C            2.65144277099250       -1.27861133981124        0.00856348689879
N            1.49590829427564       -1.97957697180041        0.00170200988352
C            0.45720415627552       -1.10862884530830        0.03610562465716
C            0.98434456051516        0.18763933274395        0.06591854882014
C            0.18451913950430        1.34558669437300        0.09267478019635
O            0.57080355348043        2.51689365084511        0.09901804371001
N           -1.21467258379685        1.02996771694421        0.11732876542488
C           -2.08827809631830        2.05187728476229        0.19137271700502
C           -1.75855317278151       -0.26419693495954        0.07275185103470
O           -2.95484694635112       -0.46411187354481        0.07401319038499
N           -0.87213981101553       -1.34530310687665        0.03575802632716
C           -1.39661810848505       -2.69320270582742       -0.00909510447650
H            3.79832696448646        1.17684731617933        1.04884924013726
H            4.08821012976673        0.96388168260339       -0.69101953707915
H            2.78187965881798        2.04338535028480       -0.12023647942548
H            3.63104398574338       -1.70419012451939       -0.02082911272615
H           -1.67638322059764        3.04131308044539        0.20595859466992
H           -4.12824535556936        3.53933347274241       -1.50168567763228
H           -3.13645200190247        1.84837022277720        0.11174433340825
H           -1.09315826706250       -3.25156760650605        0.87855183658868
H           -1.05391037700732       -3.20770237172893       -0.90883500777800
H           -2.48292245757875       -2.61798195899019       -0.03017244766582
H            1.42887884492232       -2.98468378612700       -0.02544337430884
