72
 energy: -99.648223292032 xtb: 6.6.1 (8d0f1dd)
N           -1.50451823250438        3.16398774029452        2.13939047325332
C           -1.63178093905054        2.25683235377105        1.27740375706215
C           -2.81043563891217        2.14395768173817        0.35368421806039
C           -3.49352597666507        0.82119388601389        0.60285571936815
C           -4.46400377189980        0.34800806580527       -0.28065316306492
C           -4.84562806233599       -0.97864803733591       -0.25872284154339
O           -5.88978061610495       -1.49467024686636       -0.98411543430217
C           -6.46666515048855       -0.69707894080076       -1.99807074201000
C           -4.04084163263114       -1.83108528590093        0.55830462221589
O           -3.23831965603370       -2.85802647002863       -0.00580028757973
C           -3.69947396323731       -4.12812973942658        0.39906455687702
C           -3.58500232654586       -1.26573305813775        1.76258575592886
C           -3.22681817558894        0.06022862571911        1.73530649493620
C           -2.23945554265081        2.17125962213009       -1.09011877653284
C           -1.45310430915992        0.91679003390081       -1.50939880921462
C           -0.10133329722651        0.87411096115503       -0.91053084199699
N            0.52963539649626       -0.26569062300062       -0.50562441691680
C            1.91294538109108       -0.22195483988936       -0.13573814913799
C            2.85872141670490       -0.66219505720065       -1.27631126327817
C            4.28453595002839       -0.52763458507071       -0.83778906187492
C            4.97266104227516        0.65598237710321       -1.02592272911540
C            6.28081123854753        0.79602401849677       -0.58471750020230
C            6.91949859793743       -0.24805917714881        0.05905635516929
O            8.19843617880546       -0.22452107306749        0.53048318034736
C            8.95770990936660        0.94277717411436        0.35213712454619
C            6.22497072472539       -1.46199715343042        0.26157306903526
O            6.93501138478629       -2.43483188480235        0.89869685400075
C            6.32862450574318       -3.68238799162896        1.11749109398513
C            4.92255825276966       -1.58194853387435       -0.18395572173609
C           -0.10938216726584       -1.54821616304969       -0.60667228703912
C           -3.87787983079218        3.25160513197487        0.53767582703653
C           -4.51292085496611        3.17503917383165        1.92589678283604
C           -3.33543518914700        4.65253898664011        0.28642760190299
H           -4.80796315969019        0.97257456107929       -1.08568375757566
H           -6.88229767903734        0.24518482926168       -1.62402469519801
H           -7.27804361650803       -1.28239778074132       -2.43258838396640
H           -5.72456469213956       -0.48075891529971       -2.77506008243183
H           -4.60204174011075       -3.80462182781198        0.93222021052029
H           -3.95780618996406       -4.74827106449805       -0.46704806825527
H           -2.99060492699682       -4.70102557490243        1.01540375097655
H           -3.39137270539201       -1.88163276537329        2.62917224579373
H           -2.60007900258427        0.43830691088000        2.52671752432303
H           -3.06894011294804        2.30124736111631       -1.78586858037165
H           -1.58517898424598        3.03963477714822       -1.18675868061757
H           -2.02197750960575        0.02005070711673       -1.26330175202302
H           -1.35467969947254        0.95527444979888       -2.60733972555699
H           -0.87606864183599        1.48132244451739        1.07613097758991
H            0.48929565177866        1.77149712475318       -0.90647897019870
H            2.06824573846086       -0.87483085995632        0.72933116481868
H            2.17542341479312        0.79766686239404        0.15828559536543
H            2.66920635501631       -0.03063874296247       -2.14575616960059
H            2.63791662260011       -1.69592388004573       -1.54608435681385
H            4.49590742318167        1.48275198134548       -1.53100697871091
H            6.79271008760515        1.72974130431565       -0.75453785201147
H            8.51017863071873        1.80171507308088        0.86369425338127
H            9.09132479995737        1.18186180321280       -0.70857118337985
H            9.92829816448702        0.72716705793143        0.79631234014843
H            7.08375852474657       -4.28791363721833        1.61676714360271
H            5.44873855458352       -3.59907973778243        1.76480635154307
H            6.04341319428017       -4.16643015766944        0.17707551984870
H            4.38277266202707       -2.50481981755238       -0.03869693510313
H           -0.33935639268674       -1.80853345823862       -1.64413079922669
H           -1.04364018712476       -1.56723722228440       -0.03997665320947
H            0.55586887715261       -2.30424304519064       -0.19763266736642
H           -4.66273826279014        3.04968492665612       -0.20098713012830
H           -3.76407715571707        3.38161395880731        2.68323501798999
H           -4.93497799034172        2.18937223087463        2.10926562545413
H           -5.30980911007033        3.91039333250338        2.00695446409855
H           -2.51440010227822        4.85325870669656        0.96597089477986
H           -2.99057166943828        4.76709986268786       -0.73755603862938
H           -4.12396540400840        5.37946308140256        0.46291890929877
H           -0.65145989844922        3.11912924884020        2.69378193551989
