72
 energy: -99.688089158202 xtb: 6.6.1 (8d0f1dd)
N           -1.08822886493255        2.99689221836663        1.50395127567041
C           -1.36296730651691        1.87444271738476        0.94256546060578
C           -2.65404183587133        1.85102072520120        0.11181276570098
C           -3.36238548783227        0.50397083860632        0.25651062371543
C           -4.36999294409107        0.12616226384662       -0.63524633934672
C           -5.00827614796635       -1.09834917614424       -0.54511216929351
O           -6.00655308314941       -1.52848636999145       -1.37421547421771
C           -6.47164425945229       -0.66430229066655       -2.37675362835898
C           -4.64285807752461       -2.01315726623735        0.46373001927897
O           -5.32578794915256       -3.20024125515530        0.46565786136970
C           -5.06709405385829       -4.12064031699643        1.49093471641275
C           -3.64374336880837       -1.64959119567524        1.34699659097263
C           -3.02166353676865       -0.41117874540289        1.24120530507115
C           -2.20735289563602        2.05784614583562       -1.35015782403004
C           -1.07951793337906        1.08716230033408       -1.71485634222509
C           -0.01055065716414        1.15633389683953       -0.64887844782882
N            0.63963616748460        0.01743010744907       -0.17710150594540
C            2.05207575289101        0.08496240408584        0.06309667868605
C            2.88357980052958       -0.25206647462408       -1.19452256726710
C            4.33620008151928       -0.21184829780376       -0.84262798054053
C            5.08561304115526        0.93212582331929       -1.01736158560417
C            6.41155031884515        0.97612010675683       -0.60801895236937
C            7.00161342729408       -0.12104654930363       -0.00778434101685
O            8.29196365602263       -0.18510145552753        0.43154862631409
C            9.10466615952039        0.94653561720519        0.27038596473449
C            6.23701700571158       -1.29357325825636        0.18831758902059
O            6.89714818645358       -2.32258991459000        0.78715250288206
C            6.21127266095008       -3.52794803950728        1.00569071334715
C            4.92022031173380       -1.32148792347866       -0.22894395487596
C            0.03675513064986       -1.28605928854172       -0.26676373848756
C           -3.60093786123594        3.05900452608265        0.49506904398878
C           -4.33883679588258        2.64221899002366        1.78985691669719
C           -2.94162035239141        4.49652092476613        0.66958070104150
H           -4.66751788196771        0.81473858251115       -1.40861609570080
H           -6.87035189374872        0.27115229601287       -1.96769249102168
H           -7.27510923644985       -1.19985400059980       -2.87862282133943
H           -5.68608763769709       -0.43560974492187       -3.10550552005720
H           -5.25360016225098       -3.69403763056357        2.48374876870402
H           -5.75441915759521       -4.95157020477772        1.32599455713550
H           -4.03787404529657       -4.49013613105947        1.44425450973269
H           -3.33765861921869       -2.32479182413200        2.13189566103400
H           -2.26171094470473       -0.18181127965798        1.96430372701858
H           -3.04202151074242        1.95156960698640       -2.04701605393417
H           -1.82298734514512        3.07038921551564       -1.42281044004931
H           -1.49904012142383        0.08111152186433       -1.76352692332782
H           -0.65525051671938        1.34325071424411       -2.69358190777670
H           -0.84400247476452        0.98241820429767        1.23138955205822
H            0.62177664341416        2.03662503548578       -0.66704607923765
H            2.32363896628752       -0.60852411884758        0.86316406188512
H            2.28099765845029        1.10398254606330        0.38777910633057
H            2.64927002478166        0.45671911353573       -1.98852852013872
H            2.59922669588177       -1.24936514389734       -1.52973105833246
H            4.63610965994441        1.79900385146452       -1.47800427135546
H            6.97127710379032        1.88147538197778       -0.76819286095363
H            8.70525853074674        1.81444698489500        0.80656851804718
H            9.23117564886937        1.20452665685290       -0.78706544562217
H           10.07207360200103        0.67697938967990        0.69243385401215
H            6.93072561603721       -4.19779996085759        1.47514029721481
H            5.35574708232386       -3.39637927678470        1.67772261035778
H            5.86846384790358       -3.97399767112319        0.06648117668050
H            4.32100501822715       -2.20810400774502       -0.07839215545283
H            0.08341577671839       -1.69825207673507       -1.27935952414304
H           -1.01145468629250       -1.22380218533224        0.03989030590004
H            0.55205019440226       -1.97096368384600        0.41443932752861
H           -4.35897151553516        3.13439450541272       -0.29357538152713
H           -3.63342636430369        2.40474337507570        2.58926423032384
H           -4.95269923330721        1.75201688735788        1.61859520758543
H           -4.98435836060851        3.43920603240962        2.13756854140458
H           -1.89035926255757        4.44747992490837        0.92582621114123
H           -2.91171234465444        5.30744380012275       -0.09208214316608
H           -3.38644588210624        4.85554160736371        1.58893977862215
H           -0.29572469055956        3.12742207890148        2.11094318004839
