25
 energy: -42.573405323814 xtb: 6.6.1 (8d0f1dd)
C            3.23637513446338        1.20920458021260        0.05577660823324
N            2.29380087472176        0.13284046657907        0.10907826622257
C            2.59549822049488       -1.21038577282928        0.23127859693818
N            1.41596460492182       -1.91178456593073        0.11593917751030
C            0.37891621505813       -1.06102458551179        0.00170783715845
C            0.90285351368786        0.23619639837290        0.02930471723904
C            0.11465766229428        1.39854682230803       -0.00341040914641
O            0.49069351309818        2.57613184268573       -0.01465620508933
N           -1.27491426557250        1.05317124836926       -0.01559790204075
C           -2.18138871107237        2.19885264245795       -0.04198705441505
C           -1.82891160606593       -0.20097735889211       -0.05033651201713
O           -3.02933093102205       -0.36409774547922        0.00142904345995
N           -0.95685501421260       -1.34957666065430       -0.16263212097101
C           -1.49079717103973       -2.74393999554629       -0.19605008745952
H            3.77860726887023        1.29650815687326        1.00197572652697
H            3.96496846211268        1.04970719986203       -0.74513601847483
H            2.69270564828315        2.13534415739829       -0.12578569533999
H            3.56801404945638       -1.62628379951175        0.09638111369781
H           -1.56354500039392        3.09936167854289       -0.01249717349719
H           -2.76803532941411        2.19634624721850       -0.95990216042195
H           -2.85708855626873        2.19543966255858        0.81182757085130
H           -0.89092454159036       -3.34986378905986        0.48215042277133
H           -1.53352463671381       -3.43834347453172       -1.12013973082327
H           -2.51070590346240       -2.64354333210247        0.17964589357992
H            1.36454588261652       -2.91339861987391        0.16998336701453
