25
 energy: 0.000000000000 xtb: 6.6.1 (8d0f1dd)
C            3.23720132972391        1.16630909158653        0.08434468864950
N            2.29877796055224        0.07527476373246        0.03981602671198
C            2.58028186251803       -1.21425391179017        0.03006175752192
N            1.43813944744728       -1.93419254010258        0.00098261751768
C            0.39035684826767       -1.05887462812143       -0.00790371763344
C            0.93510047688824        0.21347817468824        0.01709077332874
C            0.09450143016486        1.40504290868848       -0.00410946993748
O            0.49712746915594        2.54126690785742       -0.00342325656480
N           -1.25076628431515        1.06271869620815       -0.03085477937476
C           -2.21907191394203        2.15522079838987       -0.05001256521996
C           -1.81739470187490       -0.20012724136556       -0.04692818139228
O           -2.99983858926755       -0.37846413507442       -0.07008877579474
N           -0.92618577614240       -1.30210203518959       -0.03682761236648
C           -1.46982251276835       -2.64643077634382       -0.06029819901142
H            3.71247229913541        1.21471443890471        1.06488839270555
H            4.00791460421487        1.03430799217987       -0.67357688121503
H            2.69909982127087        2.09770098766290       -0.09130154035862
H            3.56654087521359       -1.63682977417947        0.04233139674524
H           -1.67107945562430        3.09322822573871       -0.02552706696334
H           -2.82428927394145        2.09428605349656       -0.95318074103337
H           -2.87644002486466        2.07745706351925        0.81450059976605
H           -1.17061985538665       -3.19584861009707        0.83242224714061
H           -1.14560246782873       -3.17511580834413       -0.95688266944647
H           -2.55549768731684       -2.55659960601237       -0.07459039105944
H            1.38130842369251       -2.94313824728853       -0.01389874052104
25
 energy: -2.058072344612 xtb: 6.6.1 (8d0f1dd)
C            3.24326128440615        1.18744659294152        0.07991088831898
N            2.30539828677336        0.10617678704399        0.04667409854264
C            2.59894649390384       -1.21992704798362        0.05062386268926
N            1.43009459501487       -1.93147321738556        0.02879314465807
C            0.39500027957274       -1.05351126494729       -0.00005298225055
C            0.92736343943647        0.22906832675207        0.02686689276887
C            0.10421566502188        1.40547807343506        0.00110019427736
O            0.50379462455755        2.57034997297827       -0.00521846060773
N           -1.25693871518407        1.06097604223839       -0.01973046287298
C           -2.21090425327499        2.16652954676330       -0.04856685876057
C           -1.81956831051373       -0.19502813864240       -0.03363641869340
O           -3.01720580377579       -0.36843966951230       -0.05481962212355
N           -0.93462600703926       -1.31074391814297       -0.05226997568886
C           -1.47098683194525       -2.67219989788070       -0.10596982511429
H            3.72937250897642        1.23876052560274        1.05760383956111
H            4.00623401861970        1.04542060056749       -0.68720832308320
H            2.69937951894583        2.11298331506832       -0.09869789194612
H            3.57794691611835       -1.64198063468184        0.06324681500169
H           -1.64823120553005        3.09836263976852       -0.02550946500649
H           -2.81180689621110        2.11583000262315       -0.95620943511428
H           -2.87524723596517        2.10755037685264        0.81288471073304
H           -1.11612095128042       -3.23439136670749        0.75104059463415
H           -1.25843426855551       -3.33847707307350       -1.00749860069867
H           -2.55665949294542       -2.55474567538056       -0.02301362208882
H            1.36793664584605       -2.93498610955319        0.02669081505893
25
 energy: 7.140138974162 xtb: 6.6.1 (8d0f1dd)
C            3.24707708493507        1.20789214204261        0.07130552725431
N            2.30640491688155        0.13462390687446        0.05927466106599
C            2.61079774060664       -1.21725288613937        0.08855052562800
N            1.42269397465040       -1.91923613723474        0.07188070196713
C            0.39657502293636       -1.05016652984188        0.01061464147462
C            0.91580497634271        0.24354874920443        0.03805076187302
C            0.11522348322697        1.40108651965175        0.00537414926315
O            0.50106038373098        2.58304701358894       -0.00840979562769
N           -1.26454567300741        1.05820870409479       -0.00766403097952
C           -2.19711398911441        2.18347264513368       -0.04551827700745
C           -1.81771191677950       -0.19320450814088       -0.03203231245188
O           -3.02304724080591       -0.35761547809083       -0.02855854107686
N           -0.94387755605716       -1.33041618465951       -0.08377601017522
C           -1.48057692655990       -2.70658757546587       -0.15884835343792
H            3.75251060325994        1.27176763372584        1.04086848108324
H            4.00048854508641        1.05897019499758       -0.70698655067105
H            2.70217196374307        2.13198990332751       -0.11011131869522
H            3.58474046522397       -1.63524760413489        0.09904594060468
H           -1.61216404182747        3.10486939200542       -0.02317992049971
H           -2.79064813878984        2.14904049404687       -0.95976362032745
H           -2.87188223056286        2.15136593577719        0.81008458142729
H           -1.02002618552042       -3.29822376194815        0.63401378411721
H           -1.42170224490913       -3.50392255437542       -1.08322627230407
H           -2.56105813823014       -2.55885310018206        0.05819751993304
H            1.36101942651248       -2.92012812551342        0.08784763975690
25
 energy: 14.998709962879 xtb: 6.6.1 (8d0f1dd)
C            3.24527453850244        1.21712947135239        0.05957369121013
N            2.30183923726758        0.14420832602018        0.07456326818838
C            2.60874894337896       -1.21204224205475        0.12755239983078
N            1.41919990041894       -1.91014871345141        0.10847611835643
C            0.39006195521555       -1.05134842152630        0.02003206791408
C            0.90711743153621        0.24788901132892        0.04514333609256
C            0.11877030786793        1.40342482295609        0.00544318089565
O            0.49618337569746        2.58761534704978       -0.01225863735326
N           -1.27038133438008        1.06051551804031       -0.00066765720732
C           -2.18534507534576        2.20011868048196       -0.04231496726773
C           -1.82073232775368       -0.19192627741102       -0.03127815476957
O           -3.02671257183561       -0.35038811943874       -0.00677252793926
N           -0.95363793140752       -1.34526277851561       -0.10762820875244
C           -1.49193698761397       -2.73346442947753       -0.19191754670050
H            3.76941152780396        1.29526795933788        1.01912088983532
H            3.98824030879877        1.06261936403201       -0.72907696849671
H            2.70280332224509        2.14310569714689       -0.12428367947069
H            3.58405094520495       -1.62660093039486        0.13453388310162
H           -1.57949305316626        3.10975423966710       -0.01901365825243
H           -2.77283595611964        2.18002305702672       -0.96091208204905
H           -2.86453056306075        2.18845881678252        0.81008709676355
H           -0.93945088628308       -3.35025446138649        0.53200843349741
H           -1.52233307851286       -3.57607854233832       -1.14196457590195
H           -2.55424987053584       -2.59179339507574        0.11578278365208
H            1.36215214704966       -2.91179321140796        0.14280542701750
25
 energy: 17.681262922788 xtb: 6.6.1 (8d0f1dd)
C            3.24209674796665        1.21759880478597        0.05163878839794
N            2.29787712452771        0.14316627970159        0.08701204613748
C            2.60239734465101       -1.20762340995000        0.15281382614998
N            1.41833516233222       -1.90524877342068        0.12631080675396
C            0.38329736796239       -1.05273214976771        0.02519099596341
C            0.90353162154388        0.24724536291762        0.04608746849375
C            0.11939411882876        1.40767636304349        0.00380996588730
O            0.49522362781166        2.58786082953610       -0.01441471329180
N           -1.27276031207193        1.06428173436971       -0.00014168443452
C           -2.18017703445447        2.20921754637338       -0.03905164501349
C           -1.82451029826174       -0.18976988311016       -0.03365591556979
O           -3.02814571526608       -0.34686191646322        0.00383360011434
N           -0.95886802322618       -1.34999033003159       -0.12070757815445
C           -1.49674537579561       -2.74496587205328       -0.20258953597736
H            3.77728829546681        1.30259730539513        1.00386426086091
H            3.97658480162499        1.05951685355812       -0.74441141957668
H            2.70022050976476        2.14459911739606       -0.13190278556105
H            3.58013971791237       -1.62073781557834        0.15182733942148
H           -1.56498144523608        3.11240518118835       -0.01296304318956
H           -2.76526715975207        2.19825213200668       -0.95877243103782
H           -2.85894576709071        2.20516297593608        0.81256985126735
H           -0.90953939804227       -3.36337938870892        0.47623700749168
H           -1.55287006179864       -3.60080498250648       -1.16229790291896
H           -2.53673756302819       -2.62066042457432        0.13525682484593
H            1.36537601860321       -2.90777675129958        0.17148978513450
25
 energy: 17.959278138830 xtb: 6.6.1 (8d0f1dd)
C            3.23985336417046        1.21407479831245        0.05166373003908
N            2.29590812084554        0.13888495411638        0.09705512242420
C            2.59637443354702       -1.20501361001419        0.16812768194565
N            1.41800180070428       -1.90360351288429        0.12856854585981
C            0.37864052559382       -1.05358781224855        0.02450386310741
C            0.90294354061161        0.24542590234917        0.04214072727999
C            0.11985159440236        1.41029415870587        0.00161279793588
O            0.49710285550750        2.58679599828729       -0.01667352260833
N           -1.27270553457812        1.06649984439693       -0.00405257712181
C           -2.17979180651862        2.21105440051456       -0.04052931394844
C           -1.82753939190808       -0.18758590148717       -0.03542332183605
O           -3.02866602115869       -0.34577717266064        0.00695162774398
N           -0.96049057306594       -1.34876187350866       -0.12802831343257
C           -1.49894086438268       -2.74589371350726       -0.20120256840905
H            3.77837726064302        1.29938265857337        1.00045820125911
H            3.97004212856628        1.05464599117910       -0.74738359367243
H            2.69743813072277        2.14115658362394       -0.13008264055977
H            3.57560569126846       -1.61851110699134        0.15497548229249
H           -1.56448762026076        3.11316607568240       -0.01225857342215
H           -2.76402845747377        2.20308123115926       -0.96020751232828
H           -2.85768939608670        2.20672788441409        0.81094749652561
H           -0.87911468927218       -3.36126536987108        0.44310767957809
H           -1.56769836627391       -3.59390671365817       -1.17459410624171
H           -2.52396583555432       -2.63189369644090        0.16868108979571
H            1.36719341492307       -2.90636120929855        0.17867590998815
25
 energy: 17.321485248602 xtb: 6.6.1 (8d0f1dd)
C            3.23953653343620        1.21182388869043        0.05361051177930
N            2.29552631741073        0.13674125067634        0.10219779839324
C            2.59357145911829       -1.20441176396155        0.17575278067534
N            1.41716157102546       -1.90423015222493        0.12534992085281
C            0.37686465334629       -1.05368817360553        0.02290242776328
C            0.90314704426569        0.24469115357341        0.03866886875162
C            0.11991230115168        1.41024497293903        0.00114986900754
O            0.49827734028345        2.58618949294210       -0.01670033106952
N           -1.27201735364073        1.06659320680622       -0.00776191927791
C           -2.18058406714697        2.21012124254856       -0.04195739213721
C           -1.82908251276895       -0.18621913887465       -0.03819359655045
O           -3.02941104469656       -0.34558779461342        0.00653423169593
N           -0.96081616158634       -1.34603049324044       -0.13143517293544
C           -1.49934009000479       -2.74289582213361       -0.19562436178248
H            3.77869986399282        1.29603794082442        1.00175017858648
H            3.96861188091521        1.05221161157908       -0.74609408959735
H            2.69664233783992        2.13864062014256       -0.12694401677285
H            3.57280155068607       -1.61923210018840        0.14814715331268
H           -1.56737493474013        3.11354930569730       -0.01278059790333
H           -2.76526179399288        2.20200360689177       -0.96131572941505
H           -2.85847563482799        2.20291446729783        0.80974090918700
H           -0.86943048110630       -3.35453072642532        0.43300072999205
H           -1.56713240809334       -3.58464510194617       -1.17181830445897
H           -2.51601746343229       -2.63445903623947        0.18278085323050
H            1.36640539753786       -2.90680366841153        0.17607319086735
25
 energy: 16.907849081846 xtb: 6.6.1 (8d0f1dd)
C            3.23976859710601        1.21102440976712        0.05570271739471
N            2.29554819888372        0.13639018502837        0.10513374152815
C            2.59292467019123       -1.20487602429182        0.18196660172661
N            1.41632795586659       -1.90534599435364        0.12256409356281
C            0.37659181576323       -1.05366664779777        0.02102452931487
C            0.90322468142068        0.24458056741166        0.03686885991510
C            0.11970466214749        1.40951821012339        0.00111843879112
O            0.49840579494537        2.58616622697758       -0.01626860125600
N           -1.27177572481639        1.06624898638960       -0.00989334660870
C           -2.18123900316364        2.20935097505202       -0.04360351384257
C           -1.82964443936074       -0.18552067235806       -0.03909396129538
O           -3.02995959349888       -0.34563393654238        0.00535514170903
N           -0.96100437191796       -1.34426209343736       -0.13408343938635
C           -1.49946203106693       -2.74065512441158       -0.19288896635089
H            3.77871397988009        1.29477199853446        1.00414837662152
H            3.96906165087515        1.05112721112762       -0.74376262112484
H            2.69676190108245        2.13763154723949       -0.12481777492217
H            3.57149633268502       -1.62078884474329        0.14074136033339
H           -1.56937108356765        3.11387158956065       -0.01447927599557
H           -2.76636108578473        2.20015034584557       -0.96279861360303
H           -2.85933415185356        2.20034863230055        0.80829376699398
H           -0.85906254032888       -3.35223148265582        0.42752542720980
H           -1.57034848201175       -3.57765414128418       -1.17125618181361
H           -2.51383233003462       -2.63378340056453        0.19569399264106
H            1.36507890153113       -2.90773373417364        0.17384316065153
25
 energy: 16.516765973764 xtb: 6.6.1 (8d0f1dd)
C            3.24005074156426        1.21106012524777        0.05681005058199
N            2.29561949990133        0.13679650756297        0.10696533432411
C            2.59328299863462       -1.20543349350934        0.18876481579064
N            1.41587754492781       -1.90642100070943        0.12070587140002
C            0.37712996742489       -1.05373848314724        0.01957364191119
C            0.90334946655783        0.24449930449786        0.03619843319039
C            0.11921570578173        1.40855532939159        0.00138723008804
O            0.49794966387823        2.58595859665544       -0.01523235169152
N           -1.27167108507097        1.06578147494469       -0.01102204115533
C           -2.18160590973509        2.20884955228871       -0.04419918999570
C           -1.82950051974026       -0.18546127457317       -0.03988176193819
O           -3.03004494063480       -0.34615206257082        0.00414653465932
N           -0.96085954440961       -1.34326497618759       -0.13637916253223
C           -1.49893708337583       -2.73932434727416       -0.19147658469424
H            3.77896515521866        1.29508754632071        1.00557298323702
H            3.96974475184149        1.05075267076414       -0.74239051921843
H            2.69706426551917        2.13750878658461       -0.12418998123195
H            3.57093349015080       -1.62208710022101        0.13140410474661
H           -1.57039734956343        3.11400374665758       -0.01537280055396
H           -2.76732776333172        2.19871979958617       -0.96315957606755
H           -2.85965644435634        2.19875831039861        0.80801722103943
H           -0.85861492252562       -3.34970067753201        0.42719207130603
H           -1.57059839907597       -3.57466621362319       -1.16755983325262
H           -2.51188732267116       -2.63241510496396        0.19818367366950
H            1.36413233806247       -2.90863822784495        0.17297574858193
25
 energy: 16.080370367179 xtb: 6.6.1 (8d0f1dd)
C            3.24009007272499        1.21133428549054        0.05780203568491
N            2.29538086965236        0.13755680248423        0.10921023000262
C            2.59405221258543       -1.20599683928114        0.20128443950831
N            1.41546311446822       -1.90740782923190        0.11953983118067
C            0.37799580171472       -1.05393381322472        0.01744660226870
C            0.90343366204931        0.24415659079768        0.03591047719837
C            0.11839775119527        1.40760707078204        0.00132385921972
O            0.49727179751980        2.58542750834259       -0.01413975053201
N           -1.27167152195179        1.06557936816601       -0.01190511091317
C           -2.18178191373558        2.20878685590595       -0.04463003201863
C           -1.82895603732005       -0.18570999227599       -0.04065393793482
O           -3.02986231762035       -0.34684408487268        0.00334158502538
N           -0.96065168718933       -1.34260563269713       -0.13957946638731
C           -1.49829787404116       -2.73883367439227       -0.19164978554662
H            3.77909531019771        1.29639361630552        1.00668861787157
H            3.97021015380566        1.05009835967272       -0.74109808948028
H            2.69738747239377        2.13769838422007       -0.12434130388911
H            3.57020108268025       -1.62302442491350        0.11717510001184
H           -1.57067075673391        3.11406164424581       -0.01631193370529
H           -2.76803586408751        2.19781801097690       -0.96334282867473
H           -2.85952034496799        2.19832744587299        0.80795278613429
H           -0.85747831831846       -3.34887148292219        0.42683603163811
H           -1.57260069728309       -3.57181871699774       -1.16409162139007
H           -2.51056782012526       -2.63138512038272        0.19956367949177
H            1.36333015735941       -2.90938554332699        0.17470249743033
25
 energy: 15.630430319172 xtb: 6.6.1 (8d0f1dd)
C            3.23970571583687        1.21153192156847        0.05835527988345
N            2.29478806644106        0.13812271147407        0.11111675485568
C            2.59480051374153       -1.20600732105648        0.21803393013091
N            1.41542254029459       -1.90778295909343        0.11949665438797
C            0.37886948893073       -1.05425194502104        0.01502597970166
C            0.90362016020799        0.24341936285544        0.03564196247269
C            0.11754484617606        1.40709356692296        0.00063177993510
O            0.49681530644755        2.58446996299833       -0.01387486537173
N           -1.27154695588776        1.06564276661773       -0.01228983150530
C           -2.18165105816104        2.20894081962501       -0.04457094295469
C           -1.82808150137746       -0.18650675922678       -0.04128637593501
O           -3.02918386179504       -0.34765754211661        0.00351864797653
N           -0.96007517696945       -1.34260006999343       -0.14259228290227
C           -1.49763778094313       -2.73957987235951       -0.19374735698894
H            3.77909131211248        1.29783765195535        1.00688743768645
H            3.96984389043603        1.04917963972516       -0.74052099318661
H            2.69751581155107        2.13797122258605       -0.12502979025483
H            3.56891529403010       -1.62242943995394        0.10061713573906
H           -1.57018198297453        3.11385134292323       -0.01655648041756
H           -2.76818119049340        2.19786375879735       -0.96307599543966
H           -2.85889280468353        2.19885517456968        0.80827749127189
H           -0.85819617475438       -3.34903494899818        0.42711927414682
H           -1.57439602032030       -3.56952113686055       -1.16166524207705
H           -2.50994344839650       -2.63090738013193        0.19844366928372
H            1.36324931552292       -2.90947173906290        0.17907807175625
25
 energy: 15.427245441395 xtb: 6.6.1 (8d0f1dd)
C            3.23923076037909        1.21141548615712        0.05823633981003
N            2.29428444152666        0.13802541589681        0.11110544035636
C            2.59499418627933       -1.20546540904035        0.22837886732475
N            1.41565031031136       -1.90733454450302        0.12052627610312
C            0.37910417491743       -1.05437978371829        0.01383067690791
C            0.90385439566941        0.24286040023515        0.03508299229197
C            0.11732733314771        1.40733964452937       -0.00035934865922
O            0.49693988081488        2.58380216881997       -0.01485721554598
N           -1.27128574914437        1.06584331717502       -0.01203272442477
C           -2.18132022836775        2.20905867930910       -0.04410635507540
C           -1.82754595812345       -0.18727105947820       -0.04141172333340
O           -3.02854840552564       -0.34787920081520        0.00462553099397
N           -0.95946369196985       -1.34310192175523       -0.14310281048394
C           -1.49751600839681       -2.74089969900395       -0.19602112596601
H            3.77905230691066        1.29796944798597        1.00621131588041
H            3.96895092097869        1.04867663913368       -0.74096931140479
H            2.69746959444803        2.13807677420386       -0.12542928364695
H            3.56735835267939       -1.62048195523945        0.09235807140099
H           -1.56949389783166        3.11358936150970       -0.01589341274775
H           -2.76767419176488        2.19866780880898       -0.96261362538354
H           -2.85834275993803        2.19955636664915        0.80869389338921
H           -0.85965166493270       -3.35022868442343        0.42798515894910
H           -1.57439251646026       -3.56874516710186       -1.16176650415558
H           -2.51038494744687       -2.63122852419959        0.19553914680825
H            1.36361766681206       -2.90883677239127        0.18302364280580
25
 energy: 15.438923313960 xtb: 6.6.1 (8d0f1dd)
C            3.23899558730859        1.21116269338417        0.05800108029408
N            2.29412101357717        0.13757058554174        0.11008652458144
C            2.59480840344463       -1.20486062123747        0.23173433479446
N            1.41586011977393       -1.90672142045902        0.12170540119424
C            0.37891118435762       -1.05429228628654        0.01370284439397
C            0.90407706695325        0.24272015105528        0.03430768722625
C            0.11757753295149        1.40782833399193       -0.00108044372358
O            0.49724412130258        2.58367966285137       -0.01604827882513
N           -1.27102293918209        1.06591794538363       -0.01171165485356
C           -2.18107285610140        2.20897012121718       -0.04373019865139
C           -1.82748545680102       -0.18765368387282       -0.04130704904160
O           -3.02825986101900       -0.34768635908058        0.00551521701416
N           -0.95902006625449       -1.34353795518004       -0.14217633193274
C           -1.49773030060697       -2.74178265168153       -0.19717453237636
H            3.77911868724048        1.29711073777629        1.00560008189476
H            3.96825716973452        1.04875548995399       -0.74162848185652
H            2.69738891736016        2.13801853899079       -0.12515164251407
H            3.56643766789832       -1.61883852063496        0.09082589960153
H           -1.56921587074074        3.11344659262638       -0.01507091015176
H           -2.76709158970382        2.19934114340528       -0.96237308881430
H           -2.85821803545842        2.19964427277020        0.80885917454713
H           -0.86083087500597       -3.35098930503712        0.42866113942485
H           -1.57341747918015       -3.56902979372543       -1.16311024824311
H           -2.51105340524264       -2.63158594742483        0.19378508413548
H            1.36383556836642       -2.90815893558382        0.18481230407630
25
 energy: 15.495737741345 xtb: 6.6.1 (8d0f1dd)
C            3.23901344722322        1.21095563340178        0.05798066718914
N            2.29419480319530        0.13715184574489        0.10901961506564
C            2.59454833854531       -1.20448603487005        0.23351681276189
N            1.41583650995232       -1.90637440580892        0.12267890406282
C            0.37865912359994       -1.05407448864487        0.01378204738578
C            0.90426088977362        0.24287771945559        0.03335310216823
C            0.11791794631379        1.40816295729442       -0.00152555941253
O            0.49740928373254        2.58391427916383       -0.01681136201441
N           -1.27083783997063        1.06586099867027       -0.01164191241111
C           -2.18099959371752        2.20877706561219       -0.04362143989255
C           -1.82769128164023       -0.18765165936430       -0.04120377064460
O           -3.02830128154408       -0.34735617688515        0.00584310777083
N           -0.95877118727278       -1.34363042768837       -0.14119644407280
C           -1.49800489670921       -2.74199997152267       -0.19717105251117
H            3.77923069540020        1.29604915338589        1.00549142617131
H            3.96806332358738        1.04913590061575       -0.74193477373823
H            2.69737853953283        2.13790508023617       -0.12449361597699
H            3.56616523337514       -1.61824073347446        0.08988165037640
H           -1.56938408059975        3.11347417020049       -0.01455990213110
H           -2.76678100340263        2.19954358541517       -0.96240392112128
H           -2.85839969968222        2.19918433308469        0.80878194632453
H           -0.86117309933821       -3.35120966390338        0.42898709101491
H           -1.57230440224274       -3.56943244866371       -1.16414198255778
H           -2.51136404158170       -2.63169569018234        0.19330003366900
H            1.36354857844256       -2.90781223252886        0.18512324471859
