25
 energy: 0.000000000000 xtb: 6.6.1 (8d0f1dd)
C            3.23720163006194        1.16630919979326        0.08434469647475
N            2.29877817382611        0.07527477071623        0.03981603040599
C            2.58028210190900       -1.21425402444508        0.03006176031096
N            1.43813958087363       -1.93419271955128        0.00098261760884
C            0.39035688448383       -1.05887472636071       -0.00790371836672
C            0.93510056364412        0.21347819449412        0.01709077491437
C            0.09450143893243        1.40504303904423       -0.00410947031874
O            0.49712751527797        2.54126714362870       -0.00342325688240
N           -1.25076640035757        1.06271879480407       -0.03085478223738
C           -2.21907211982101        2.15522099834493       -0.05001256985998
C           -1.81739487048744       -0.20012725993278       -0.04692818574614
O           -2.99983886758376       -0.37846417018721       -0.07008878229737
N           -0.92618586207120       -1.30210215599479       -0.03682761578324
C           -1.46982264913417       -2.64643102187190       -0.06029820460571
H            3.71247264356769        1.21471455160235        1.06488849150277
H            4.00791497605742        1.03430808813993       -0.67357694370751
H            2.69910007168542        2.09770118228144       -0.09130154882931
H            3.56654120610678       -1.63682992603973        0.04233140067262
H           -1.67107961066214        3.09322851271934       -0.02552706933167
H           -2.82428953597071        2.09428624779827       -0.95318082946668
H           -2.87644029173232        2.07745725625962        0.81450067533302
H           -1.17061996399332       -3.19584890659852        0.83242232437030
H           -1.14560257411436       -3.17511610292205       -0.95688275822323
H           -2.55549792440841       -2.55659984320617       -0.07459039797972
H            1.38130855184625       -2.94313852034425       -0.01389874181052
25
 energy: -2.058044173758 xtb: 6.6.1 (8d0f1dd)
C            3.24326158530641        1.18744670310933        0.07991089573288
N            2.30539850066144        0.10617679689476        0.04667410287293
C            2.59894673502646       -1.21992716116487        0.05062386738599
N            1.43009472769485       -1.93147339658197        0.02879314732941
C            0.39500031621971       -1.05351136268897       -0.00005298225547
C            0.92736352547453        0.22906834800436        0.02686689526150
C            0.10421567469070        1.40547820383119        0.00110019437943
O            0.50379467129814        2.57035021144779       -0.00521846109188
N           -1.25693883179915        1.06097614067263       -0.01973046470351
C           -2.21090445839619        2.16652974776755       -0.04856686326646
C           -1.81956847932793       -0.19502815673654       -0.03363642181409
O           -3.01720608370328       -0.36843970369505       -0.05481962720955
N           -0.93462609375112       -1.31074403974994       -0.05226998053831
C           -1.47098696841909       -2.67220014579956       -0.10596983494586
H            3.72937285497665        1.23876064053130        1.05760393768249
H            4.00623439030633        1.04542069755854       -0.68720838684037
H            2.69937976938633        2.11298351110471       -0.09869790110302
H            3.57794724806976       -1.64198078701998        0.06324682086954
H           -1.64823135844810        3.09836292722551       -0.02550946737318
H           -2.81180715708229        2.11583019892364       -0.95620952382858
H           -2.87524750272216        2.10755057238497        0.81288478615010
H           -1.11612105483084       -3.23439166678482        0.75104066431349
H           -1.25843438530935       -3.33847738280760       -1.00749869417143
H           -2.55665973014478       -2.55474591240236       -0.02301362422396
H            1.36793677275919       -2.93498638185258        0.02669081753523
25
 energy: 7.140186762862 xtb: 6.6.1 (8d0f1dd)
C            3.24707738618935        1.20789225410730        0.07130553386983
N            2.30640513086302        0.13462391936447        0.05927466656532
C            2.61079798282879       -1.21725299907252        0.08855053384346
N            1.42269410664377       -1.91923631529583        0.07188070863601
C            0.39657505972943       -1.05016662727325        0.01061464245942
C            0.91580506130841        0.24354877180017        0.03805076540326
C            0.11522349391707        1.40108664964044        0.00537414976175
O            0.50106043021789        2.58304725323646       -0.00840979640793
N           -1.26454579032824        1.05820880227229       -0.00766403169057
C           -2.19711419295619        2.18347284770986       -0.04551828123050
C           -1.81771208542147       -0.19320452606583       -0.03203231542374
O           -3.02304752127535       -0.35761551126934       -0.02855854372644
N           -0.94387764362735       -1.33041630809162       -0.08377601794771
C           -1.48057706392348       -2.70658782657512       -0.15884836817540
H            3.75251095140685        1.27176775171671        1.04086857765196
H            4.00048891623999        1.05897029324572       -0.70698661626319
H            2.70217221444265        2.13199010112727       -0.11011132891102
H            3.58474079780566       -1.63524775584836        0.09904594979387
H           -1.61216419139932        3.10486968006608       -0.02317992265027
H           -2.79064839769798        2.14904069342854       -0.95976370937150
H           -2.87188249700766        2.15136613537460        0.81008465658456
H           -1.02002628015545       -3.29822406794766        0.63401384293915
H           -1.42170237681049       -3.50392287945906       -1.08322637280262
H           -2.56105837583759       -2.55885333758494        0.05819752533243
H            1.36101955278387       -2.92012839643433        0.08784764790715
25
 energy: 14.998766025239 xtb: 6.6.1 (8d0f1dd)
C            3.24527483958948        1.21712958427409        0.05957369673720
N            2.30183945082546        0.14420833939940        0.07456327510614
C            2.60874918541103       -1.21204235450447        0.12755241166472
N            1.41920003208814       -1.91014889066940        0.10847612842053
C            0.39006199140435       -1.05134851906732        0.02003206977260
C            0.90711751569590        0.24788903432733        0.04514334028083
C            0.11877031888709        1.40342495316172        0.00544318140065
O            0.49618342173190        2.58761558712113       -0.01225863849058
N           -1.27038145224233        1.06051561643183       -0.00066765726926
C           -2.18534527809566        2.20011888460251       -0.04231497119359
C           -1.82073249667588       -0.19192629521738       -0.03127815767147
O           -3.02671285264511       -0.35038815194672       -0.00677252856760
N           -0.95363801988325       -1.34526290332514       -0.10762821873787
C           -1.49193712603150       -2.73346468308033       -0.19191756450605
H            3.76941187751889        1.29526807950904        1.01912098438636
H            3.98824067881599        1.06261946261871       -0.72907703613833
H            2.70280357300324        2.14310589597794       -0.12428369100136
H            3.58405127772267       -1.62660108130612        0.13453389558328
H           -1.57949319970699        3.10975452818097       -0.01901366001646
H           -2.77283621337522        2.18002325928286       -0.96091217119965
H           -2.86453082882348        2.18845901982130        0.81008717192105
H           -0.93945097344257       -3.35025477221326        0.53200848285559
H           -1.52233321975045       -3.57607887411638       -1.14196468185007
H           -2.55425010751164       -2.59179363553472        0.11578279439407
H            1.36215227342614       -2.91179348155558        0.14280544026657
25
 energy: 17.681317797085 xtb: 6.6.1 (8d0f1dd)
C            3.24209704875887        1.21759891775121        0.05163879318884
N            2.29787733771800        0.14316629298414        0.08701205421020
C            2.60239758609379       -1.20762352198975        0.15281384032760
N            1.41833529392119       -1.90524895018407        0.12631081847271
C            0.38329740352359       -1.05273224743711        0.02519099830056
C            0.90353170537089        0.24724538585632        0.04608747276961
C            0.11939412990580        1.40767649364357        0.00380996624078
O            0.49522367375705        2.58786106963023       -0.01441471462915
N           -1.27276043015489        1.06428183311064       -0.00014168444767
C           -2.18017723672489        2.20921775133810       -0.03905164863659
C           -1.82451046753445       -0.18976990071645       -0.03365591869229
O           -3.02814599620855       -0.34686194864405        0.00383360047001
N           -0.95886811218714       -1.34999045527973       -0.12070758935334
C           -1.49674551465925       -2.74496612672315       -0.20258955477302
H            3.77728864591253        1.30259742624628        1.00386435399649
H            3.97658517056085        1.05951695185698       -0.74441148864099
H            2.70022076028329        2.14459931636567       -0.13190279779860
H            3.58014005006722       -1.62073796594563        0.15182735350757
H           -1.56498159043046        3.11240546994816       -0.01296304439223
H           -2.76526741630544        2.19825233595406       -0.95877251998991
H           -2.85894603233530        2.20516318052462        0.81256992665519
H           -0.90953948242666       -3.36337970075338        0.47623705167555
H           -1.55287020586936       -3.60080531657859       -1.16229801075355
H           -2.53673779837925       -2.62066066771150        0.13525683739466
H            1.36537614527879       -2.90777702107457        0.17148980104482
25
 energy: 17.959330352054 xtb: 6.6.1 (8d0f1dd)
C            3.23985366475454        1.21407491095074        0.05166373483229
N            2.29590833385315        0.13888496700172        0.09705513142869
C            2.59637467443102       -1.20501372181181        0.16812769754404
N            1.41800193226232       -1.90360368949503        0.12856855778802
C            0.37864056072298       -1.05358790999733        0.02450386538081
C            0.90294362438406        0.24542592511906        0.04214073118968
C            0.11985160552184        1.41029428954882        0.00161279808551
O            0.49710290162724        2.58679623828263       -0.01667352415525
N           -1.27270565265600        1.06649994334365       -0.00405257749780
C           -2.17979200875330        2.21105460564969       -0.04052931770863
C           -1.82753956146182       -0.18758591889084       -0.03542332512252
O           -3.02866630214943       -0.34577720474083        0.00695162838893
N           -0.96049066217743       -1.34876199864283       -0.12802832531066
C           -1.49894100345001       -2.74589396826321       -0.20120258707603
H            3.77837761118977        1.29938277912628        1.00045829407868
H            3.97004249689513        1.05464608902606       -0.74738366301248
H            2.69743838098316        2.14115678227416       -0.13008265262846
H            3.57560602300266       -1.61851125715205        0.15497549667066
H           -1.56448776540933        3.11316636451281       -0.01225857455946
H           -2.76402871391221        2.20308143555467       -0.96020760141351
H           -2.85768966121473        2.20672808914782        0.81094757176294
H           -0.87911477083386       -3.36126568171941        0.44310772068832
H           -1.56769851172036       -3.59390704709028       -1.17459421521710
H           -2.52396606972046       -2.63189394062027        0.16868110544545
H            1.36719354176726       -2.90636147894221        0.17867592656518
25
 energy: 17.321535514925 xtb: 6.6.1 (8d0f1dd)
C            3.23953683399089        1.21182400111989        0.05361051675313
N            2.29552653038292        0.13674126336279        0.10219780787485
C            2.59357169974223       -1.20441187570334        0.17575279698117
N            1.41716170250555       -1.90423032889381        0.12534993248241
C            0.37686468831069       -1.05368827136362        0.02290242988810
C            0.90314712805702        0.24469117627514        0.03866887233920
C            0.11991231227679        1.41024510377742        0.00114986911422
O            0.49827738651216        2.58618973288117       -0.01670033261893
N           -1.27201747165476        1.06659330576161       -0.00776191999804
C           -2.18058426945516        2.21012144759712       -0.04195739602989
C           -1.82908268246585       -0.18621915615151       -0.03819360009394
O           -3.02941132575642       -0.34558782667604        0.00653423230216
N           -0.96081625072804       -1.34603061812120       -0.13143518512961
C           -1.49934022910916       -2.74289607661143       -0.19562437993193
H            3.77870021456950        1.29603806106701        1.00175027152592
H            3.96861224911137        1.05221170920018       -0.74609415881777
H            2.69664258802648        2.13864081855936       -0.12694402855034
H            3.57280188216011       -1.61923225041600        0.14814716705734
H           -1.56737508015657        3.11354959456326       -0.01278059908908
H           -2.76526205054575        2.20200381118720       -0.96131581860310
H           -2.85847590002896        2.20291467167776        0.80974098431238
H           -0.86943056176951       -3.35453103764883        0.43300077016459
H           -1.56713255348728       -3.58464543451902       -1.17181841317683
H           -2.51601769686100       -2.63445928065684        0.18278087018837
H            1.36640552430894       -2.90680393809624        0.17607320720290
25
 energy: 16.907899557194 xtb: 6.6.1 (8d0f1dd)
C            3.23976889768223        1.21102452212241        0.05570272256264
N            2.29554841185794        0.13639019768225        0.10513375128215
C            2.59292491075517       -1.20487613607668        0.18196661860894
N            1.41632808726934       -1.90534617112605        0.12256410493395
C            0.37659185070231       -1.05366674555387        0.02102453126546
C            0.90322476521921        0.24458059010313        0.03686886333568
C            0.11970467325334        1.40951834089435        0.00111843889489
O            0.49840584118600        2.58616646691449       -0.01626860276535
N           -1.27177584280801        1.06624908531305       -0.00989334752658
C           -2.18123920553259        2.20935118002912       -0.04360351788798
C           -1.82964460910978       -0.18552068957012       -0.03909396492240
O           -3.02995987460963       -0.34563396860928        0.00535514220586
N           -0.96100446107712       -1.34426221815405       -0.13408345182622
C           -1.49946217018261       -2.74065537868151       -0.19288898424656
H            3.77871433045808        1.29477211865960        1.00414846978346
H            3.96906201911303        1.05112730864812       -0.74376269012895
H            2.69676215128010        2.13763174556267       -0.12481778650240
H            3.57149666403796       -1.62078899511532        0.14074137339096
H           -1.56937122916929        3.11387187845651       -0.01447927733891
H           -2.76636134243959        2.20015054996906       -0.96279870292866
H           -2.85933441713419        2.20034883644243        0.80829384198510
H           -0.85906262003018       -3.35223179366601        0.42752546687435
H           -1.57034862770407       -3.57765447320842       -1.17125629047932
H           -2.51383256326060       -2.63378364491922        0.19569401079697
H            1.36507902817914       -2.90773400394464        0.17384317678019
25
 energy: 16.516816474393 xtb: 6.6.1 (8d0f1dd)
C            3.24005104216665        1.21106023760637        0.05681005585266
N            2.29561971288217        0.13679652025455        0.10696534424804
C            2.59328323923180       -1.20543360534592        0.18876483330369
N            1.41587767628877       -1.90642117758157        0.12070588259876
C            0.37713000241390       -1.05373858091000        0.01957364372718
C            0.90334955036794        0.24449932718179        0.03619843654877
C            0.11921571684221        1.40855546007322        0.00138723021674
O            0.49794971007654        2.58595883657308       -0.01523235310473
N           -1.27167120305288        1.06578157382477       -0.01102204217792
C           -2.18160611213808        2.20884975721928       -0.04419919409637
C           -1.82950068947595       -0.18546129177972       -0.03988176563830
O           -3.03004522175347       -0.34615209468579        0.00414653504402
N           -0.96085963355534       -1.34326510081177       -0.13637917518509
C           -1.49893722244281       -2.73932460142063       -0.19147660245888
H            3.77896550581995        1.29508766647513        1.00557307653113
H            3.96974512014275        1.05075276824989       -0.74239058809524
H            2.69706451574487        2.13750898489640       -0.12418999275393
H            3.57093382145152       -1.62208725071349        0.13140411693790
H           -1.57039749526028        3.11400403556570       -0.01537280198020
H           -2.76732802007626        2.19872000357694       -0.96315966542667
H           -2.85965670966687        2.19875851439295        0.80801729600489
H           -0.85861500218539       -3.34970098830740        0.42719211093966
H           -1.57059854479148       -3.57466654527022       -1.16755994157539
H           -2.51188755571669       -2.63241534919170        0.19818369205640
H            1.36413246462266       -2.90863849769986        0.17297576463011
25
 energy: 16.080421233967 xtb: 6.6.1 (8d0f1dd)
C            3.24009037333103        1.21133439787458        0.05780204104761
N            2.29538108261106        0.13755681524635        0.10921024013482
C            2.59405245325398       -1.20599695116999        0.20128445818289
N            1.41546324579073       -1.90740800619560        0.11953984227122
C            0.37799583678406       -1.05393391100560        0.01744660388734
C            0.90343374586723        0.24415661344981        0.03591048053004
C            0.11839776217987        1.40760720137569        0.00132385934254
O            0.49727184365522        2.58542774821096       -0.01413975184385
N           -1.27167163993374        1.06557946702733       -0.01190511201769
C           -2.18178211615490        2.20878706083071       -0.04463003615927
C           -1.82895620700522       -0.18571000950562       -0.04065394170657
O           -3.02986259872208       -0.34684411705186        0.00334158533540
N           -0.96065177631577       -1.34260575726014       -0.13957947933708
C           -1.49829801304884       -2.73883392849321       -0.19164980332732
H            3.77909566081107        1.29639373658111        1.00668871126918
H            3.97021052215010        1.05009845709776       -0.74109815823718
H            2.69738772264946        2.13769858254945       -0.12434131542513
H            3.57020141391302       -1.62302457549294        0.11717511088300
H           -1.57067090245613        3.11406193315930       -0.01631193521866
H           -2.76803612089775        2.19781821488400       -0.96334291805085
H           -2.85952061026589        2.19832764982735        0.80795286109378
H           -0.85747839787278       -3.34887179362065        0.42683607123870
H           -1.57260084318436       -3.57181904838059       -1.16409172939107
H           -2.51056805304837       -2.63138536451490        0.19956369800670
H            1.36333028384518       -2.90938581325124        0.17470251363871
25
 energy: 15.630481357488 xtb: 6.6.1 (8d0f1dd)
C            3.23970601640725        1.21153203397084        0.05835528529748
N            2.29478827934476        0.13812272428869        0.11111676516477
C            2.59480075447950       -1.20600743294630        0.21803395035946
N            1.41542267161334       -1.90778313609193        0.11949666547452
C            0.37886952408113       -1.05425204283144        0.01502598109573
C            0.90362024404321        0.24341938543917        0.03564196577945
C            0.11754485708153        1.40709369746897        0.00063177999371
O            0.49681535254062        2.58447020277786       -0.01387486665900
N           -1.27154707385815        1.06564286548494       -0.01228983264551
C           -2.18165126056822        2.20894102456405       -0.04457094708985
C           -1.82808167098149       -0.18650677653033       -0.04128637976544
O           -3.02918414283382       -0.34765757437126        0.00351864830298
N           -0.96007526604241       -1.34260019455592       -0.14259229613156
C           -1.49763791988957       -2.73958012652968       -0.19374737496425
H            3.77909166272547        1.29783777236492        1.00688753110251
H            3.96984425874649        1.04917973706497       -0.74052106188997
H            2.69751606181866        2.13797142094074       -0.12502980185473
H            3.56891562514358       -1.62242959047818        0.10061714507402
H           -1.57018212865140        3.11385163181721       -0.01655648195362
H           -2.76818144731712        2.19786396270869       -0.96307608479102
H           -2.85889306992321        2.19885537857301        0.80827756626150
H           -0.85819625437530       -3.34903525971181        0.42711931377369
H           -1.57439616638814       -3.56952146803024       -1.16166534985294
H           -2.50994368126168       -2.63090762421979        0.19844368769474
H            1.36324944200119       -2.90947200899514        0.17907808837059
25
 energy: 15.427296292176 xtb: 6.6.1 (8d0f1dd)
C            3.23923106090541        1.21141559854869        0.05823634521303
N            2.29428465438363        0.13802542870240        0.11110545066440
C            2.59499442703527       -1.20546552087989        0.22837888851307
N            1.41565044165124       -1.90733472145992        0.12052628728519
C            0.37910421008960       -1.05437988154055        0.01383067819108
C            0.90385447952637        0.24286042276702        0.03508299554687
C            0.11732734403300        1.40733977509821       -0.00035934869256
O            0.49693992691950        2.58380240853755       -0.01485721692439
N           -1.27128586709053        1.06584341606083       -0.01203272554113
C           -2.18132043074423        2.20905888425908       -0.04410635916746
C           -1.82754612767780       -0.18727107685266       -0.04141172717546
O           -3.02854868650547       -0.34787923309041        0.00462553142311
N           -0.95946378098607       -1.34310204636428       -0.14310282376060
C           -1.49751614733195       -2.74089995329657       -0.19602114415227
H            3.77905265752003        1.29796956840776        1.00621140923374
H            3.96895128920630        1.04867673642682       -0.74096938014975
H            2.69746984471134        2.13807697256834       -0.12542929528391
H            3.56735868364842       -1.62048210558301        0.09235807996970
H           -1.56949404344469        3.11358965037938       -0.01589341422229
H           -2.76767444854156        2.19866801279492       -0.96261371469201
H           -2.85834302512668        2.19955657071753        0.80869396841745
H           -0.85965174468866       -3.35022899524781        0.42798519865631
H           -1.57439266252777       -3.56874549819956       -1.16176661194086
H           -2.51038518035301       -2.63122876831724        0.19553916494980
H            1.36361779332450       -2.90883704226460        0.18302365978620
25
 energy: 15.438973886477 xtb: 6.6.1 (8d0f1dd)
C            3.23899588781309        1.21116280575229        0.05800108567525
N            2.29412122641898        0.13757059830513        0.11008653479494
C            2.59480864418333       -1.20486073302090        0.23173435629409
N            1.41586025113327       -1.90672159735903        0.12170541248571
C            0.37891121951189       -1.05429238410068        0.01370284566528
C            0.90407715083087        0.24272017357414        0.03430769040922
C            0.11757754385999        1.40782846460611       -0.00108044382382
O            0.49724416743543        2.58367990255758       -0.01604828031404
N           -1.27102305710387        1.06591804427637       -0.01171165594013
C           -2.18107305845493        2.20897032615894       -0.04373020270855
C           -1.82748562634975       -0.18765370128278       -0.04130705287395
O           -3.02826014197206       -0.34768639133790        0.00551521752585
N           -0.95902015522956       -1.34353807982955       -0.14217634512344
C           -1.49773043956199       -2.74178290605607       -0.19717455066963
H            3.77911903785601        1.29711085811841        1.00560017519138
H            3.96825753789777        1.04875558725444       -0.74162855066263
H            2.69738916761598        2.13801873734987       -0.12515165412527
H            3.56643799878193       -1.61883867082604        0.09082590802809
H           -1.56921601632798        3.11344688148281       -0.01507091154999
H           -2.76709184642645        2.19934134745369       -0.96237317810045
H           -2.85821830063550        2.19964447684674        0.80885924959071
H           -0.86083095487133       -3.35098961593207        0.42866117919477
H           -1.57341762515720       -3.56903012484953       -1.16311035615306
H           -2.51105363821080       -2.63158619157565        0.19378510211429
H            1.36383569489908       -2.90815920539427        0.18481232122264
25
 energy: 15.495788236298 xtb: 6.6.1 (8d0f1dd)
C            3.23901374772938        1.21095574575069        0.05798067256842
N            2.29419501604396        0.13715185846944        0.10901962518016
C            2.59454857925989       -1.20448614661873        0.23351683442689
N            1.41583664130947       -1.90637458267674        0.12267891544461
C            0.37865915873082       -1.05407458643881        0.01378204866444
C            0.90426097366829        0.24287774198907        0.03335310526263
C            0.11791795725387        1.40816308793964       -0.00152555955407
O            0.49740932988071        2.58391451889181       -0.01681136357412
N           -1.27083795787523        1.06586109755772       -0.01164191349121
C           -2.18099979606426        2.20877727053604       -0.04362144393962
C           -1.82769145120806       -0.18765167677407       -0.04120377446736
O           -3.02830156250098       -0.34735620911184        0.00584310831294
N           -0.95877127622476       -1.34363055234646       -0.14119645717259
C           -1.49800503568971       -2.74200022591737       -0.19717107080412
H            3.77923104602613        1.29604927362952        1.00549151945785
H            3.96806369173264        1.04913599795150       -0.74193484257276
H            2.69737878978769        2.13790527858473       -0.12449362752714
H            3.56616556423348       -1.61824088361008        0.08988165871536
H           -1.56938422620260        3.11347445905948       -0.01455990348192
H           -2.76678126009645        2.19954378948236       -0.96240401041029
H           -2.85839996487615        2.19918453711855        0.80878202136094
H           -0.86117317923532       -3.35120997481877        0.42898713081507
H           -1.57230454811652       -3.56943277982517       -1.16414209056345
H           -2.51136427457868       -2.63169593434334        0.19330005160281
H            1.36354870494859       -2.90781250230714        0.18512326189378
