  25
        -42.13600081
 C          3.7560339250        3.2515142089        0.0483269039
 N          2.2358861945       -0.3614950483       -0.0099452346
 C          2.3589264986       -1.6539953294       -0.0075999325
 N          1.1444686974       -2.2905287142       -0.0057141760
 C          0.2053257145       -1.3123450937       -0.0101068421
 C          0.9068395859       -0.0987599267       -0.0135417680
 C          0.2014679340        1.1623670967       -0.0130334438
 O          0.7065648796        2.2627935477       -0.0194905651
 N         -1.1836585392        0.9845527980       -0.0042890891
 C         -2.0166170091        2.1769386625        0.0061904391
 C         -1.8851418495       -0.2087822449        0.0057455200
 O         -3.0869121920       -0.2410819019        0.0226226903
 N         -1.1353809429       -1.3979033460       -0.0065560113
 C         -1.8308482563       -2.6666683893       -0.0031137213
 H          4.1565626426        3.5542129236        0.9982868321
 H          4.4111545241        3.1673137172       -0.7981999815
 H          2.7058909854        3.0296312121       -0.0490190254
 H          3.2943665586       -2.1762484761       -0.0024823760
 H         -1.3681098464        3.0467225551       -0.0693615925
 H         -2.7153198568        2.1472022387       -0.8303215650
 H         -2.5960006274        2.2190812974        0.9295642739
 H         -1.5662680999       -3.2435428073        0.8847367883
 H         -1.5870653191       -3.2369029577       -0.9007804299
 H         -2.9012338815       -2.4614725132        0.0102915315
 H          0.9921454752       -3.2884978939       -0.0074421670
