  25
        -42.11937710
 C          4.4859384345        0.0300837278        0.4807805027
 N          3.1092039510       -0.3005070504        0.3509069853
 C          2.7217665319       -1.4568299341        0.0354471594
 N          1.3952169206       -1.7764259832       -0.0969886726
 C          0.3574930452       -0.9165338153        0.0962326744
 C          0.3539331006        0.3852040627        0.5169040089
 C         -1.4966392425        2.7848858281       -0.4709530179
 O         -1.3240396918        2.9115684422       -1.5953593320
 N         -0.9656975898        0.7861648704        0.5759669561
 C         -1.5089234317        2.0982794131        0.7920021000
 C         -1.7913674904       -0.2604832606        0.1435367588
 O         -2.9896394274       -0.2010718856        0.0516846094
 N         -0.9465606165       -1.3096783567       -0.1188968242
 C         -1.4125085956       -2.5959602210       -0.5734182654
 H          4.6608237377        0.3814989344        1.4984566183
 H          5.1570553884       -0.8085648783        0.2649883527
 H          4.7060340333        0.8552376272       -0.1976208314
 H          3.3908347693       -2.3010879712       -0.1645789951
 H          1.1749813772        1.0047340225        0.8040403993
 H         -2.5606675851        1.9803443110        1.1081332847
 H         -0.9660512686        2.6549575556        1.5645921030
 H         -1.1557082062       -3.3768649153        0.1439719024
 H         -0.9988493557       -2.8360140048       -1.5540349590
 H         -2.4971350017       -2.5338405386       -0.6521587140
 H          1.1667556373       -2.7263450693       -0.3534088625
