  25
        -42.13532331
 C          3.3626751266        0.6360298391        0.0161147615
 N          2.2628091067       -0.2880617888        0.0055379569
 C          2.3376475684       -1.6228182500       -0.0085025756
 N          1.0914962904       -2.1546663394       -0.0019884285
 C          0.1921073733       -1.1188408787        0.0116261198
 C          0.9314640645        0.0602998311        0.0168044532
 C          0.3093599486        1.3586723598        0.0185748140
 O          0.8853203327        2.4288103544        0.0244638221
 N         -1.0894206233        1.2556804941        0.0065363371
 C         -1.8458182012        2.4998236122       -0.0053932439
 C         -1.8555124907        0.1185562616       -0.0014720519
 O         -3.0568248433        0.1313950056       -0.0226687539
 N         -1.1651382014       -1.1560201006        0.0188924249
 C         -1.9132970302       -2.2722975670        0.0460843144
 H          3.8889283155        0.5916967662        0.9714245065
 H          4.0663949739        0.3977777558       -0.7818024889
 H          2.9741778504        1.6443500733       -0.1242274657
 H          3.2436089922       -2.1951286994       -0.0189187111
 H         -1.1375025877        3.3247312438        0.0359541960
 H         -2.4449419783        2.5630121868       -0.9142178082
 H         -2.5181638004        2.5342716598        0.8519051175
 H         -1.4573403092       -3.2396480703        0.0749723648
 H         -3.4313763211       -4.3475434265       -1.6808664644
 H         -2.9800736097       -2.1517866839        0.0590865360
 H          0.8867652419       -3.1423600017       -0.0226636041
