72
 energy: -99.247137556981 gnorm: 0.002916317653 xtb: 6.6.1 (8d0f1dd)
N           -1.91385235992026        2.91209425310843        2.07735356919324
C           -2.00365920742387        2.16719494343288        1.07901374369698
C           -3.25738878065254        1.96393317619449        0.27374792576610
C           -3.66711955596241        0.50039940693902        0.34142650522726
C           -4.63665933653670        0.00538204522266       -0.53275465736746
C           -5.06725215279681       -1.30930951598622       -0.46452344348506
O           -6.00192575952369       -1.86671072393133       -1.26128149594770
C           -6.67943084182080       -1.06390406483037       -2.19906821899884
C           -4.51015570420701       -2.17932779505114        0.51181981323528
O           -4.99142739441192       -3.43780232549776        0.50647150038161
C           -4.57345523729567       -4.33612501974391        1.50780634251298
C           -3.54811946031216       -1.68112009831191        1.37625155860456
C           -3.13598079046384       -0.35823290255079        1.29218488550499
C           -2.89386696520237        2.35612243051752       -1.18252047891138
C           -1.97377610792112        1.35509164374613       -1.89794919737983
C           -0.56437951545787        1.42093254588542       -1.44319070048227
N            0.24983529936528        0.39782784138796       -1.31032866240059
C            1.72162665784546        0.59684019766281       -1.28124724621307
C            2.25640270273404        0.30984107608903       -2.61573807928413
C            4.87373798382355       -0.87808225551392       -0.29126367258306
C            5.27419669697803        0.33346348363860       -0.76896622422652
C            6.57623944233548        0.73741881428188       -0.46194537743797
C            7.41442185059177       -0.08193325789210        0.28147767515144
O            8.68428293976073        0.20950511624994        0.63048359873767
C            9.24328713667933        1.43975126245485        0.23253174287916
C            6.95206218978288       -1.35067243663266        0.73668608156458
O            7.84268030291459       -2.07789756253865        1.43262845923661
C            7.49474781074647       -3.36908629646491        1.87327708500509
C            5.64335945521676       -1.73611240436882        0.44003828280769
C           -0.20851985947663       -0.96562532451540       -1.43694793297651
C           -4.46101919074078        2.82022234575971        0.76836539136417
C           -4.87940166368589        2.42882027072443        2.18366458037362
C           -4.20064058573458        4.32274006302617        0.70825595283069
H           -5.07350943500889        0.66211540518517       -1.26657809175065
H           -7.19697707435578       -0.23037387273851       -1.71456387546189
H           -7.41216711928422       -1.71833529354357       -2.66729080791380
H           -5.99884084738935       -0.67852772768622       -2.96550717797419
H           -4.80220799531582       -3.95518533595582        2.50769754433898
H           -5.13613724020274       -5.25119514610062        1.33230654354121
H           -3.50230276709332       -4.55034905716920        1.43408951121231
H           -3.11928462471950       -2.31316952386906        2.13672418756700
H           -2.41001747516663        0.00336214845390        2.00387328592847
H           -3.81511163025840        2.44523739951861       -1.75744417256782
H           -2.41733096905724        3.33709223431002       -1.17376768944685
H           -2.38168131063409        0.34883050531739       -1.80786338441890
H           -1.97622223103218        1.61863260199469       -2.96398123979801
H           -1.14935071792124        1.61033671256096        0.65043158653052
H           -0.12620715123364        2.40445420480139       -1.34777077156530
H            2.13413761660152       -0.07283223211364       -0.52329106683284
H            1.89531695847153        1.63286123986047       -0.98167911709298
H            2.10716229015540        1.01978155192532       -3.40604820127776
H            2.58208236078969       -0.67698992054779       -2.87497402507213
H            4.63513108508239        0.96337298758014       -1.36795439333888
H            6.91739970640539        1.69517245007068       -0.82125835519579
H            8.69003020078832        2.28486690159009        0.65340033165043
H            9.27848761893746        1.53007675938442       -0.85736863039622
H           10.25736274533155        1.43962224863261        0.62738641276253
H            8.38281627440348       -3.75587630683262        2.36887507844198
H            6.66524962905264       -3.34009629667624        2.58686308408265
H            7.23393395785079       -4.02160191353800        1.03402934482816
H            5.26089603362648       -2.68622452108176        0.77902153867037
H           -0.49319203383183       -1.20322876008175       -2.46502879303900
H           -1.06961249323377       -1.13035356906648       -0.78541794622462
H            0.59505816578618       -1.63670437328905       -1.13730755663944
H           -5.29649416773575        2.59253515554844        0.09595269568463
H           -4.08177199259624        2.65662452157089        2.88373976685628
H           -5.11401994939221        1.36902021915882        2.24639506614110
H           -5.76296059446514        2.99189650187876        2.47173186232685
H           -3.35266998568428        4.58239142471773        1.33472529804992
H           -4.01719070479960        4.66516682328110       -0.30688258022456
H           -5.07453959882695        4.84956267456279        1.08282995543234
H           -1.00759893627047        2.99653176826568        2.52741031841708
