  72
        -99.42916328
 N         -1.4911962075        0.8704068061        2.2020120908
 C         -1.4008142340        1.0098935355        0.9593847528
 C         -2.5936848707        1.2529083605        0.0590812221
 C         -3.6319064206        0.1564464560        0.1462090575
 C         -4.7352796606        0.1907356704       -0.6631217613
 C         -5.7320955200       -0.7964443174       -0.6270036431
 O         -6.8418636830       -0.7997782760       -1.3618349871
 C         -7.1272600432        0.2705923625       -2.2355816626
 C         -5.5826077970       -1.9303666236        0.2523626761
 O         -6.5643756369       -2.8468474903        0.1425467490
 C         -6.5144610390       -3.9912928515        0.9652226897
 C         -4.5081618257       -1.9939064333        1.0794218493
 C         -3.4674637642       -0.9377553939        1.1361227278
 C         -1.9823615591        1.2838520033       -1.3672997785
 C         -0.6462573569        0.5534896742       -1.2601681398
 C         -0.1241085399        0.9764429596        0.1229488552
 N          0.9046662955        0.1945070932        0.7529184156
 C          2.2700977114        0.6195624229        0.5942476029
 C          2.8688248975        0.4276013420       -0.8229241827
 C          4.3638582053        0.4075445659       -0.7326155658
 C          5.1127591203        1.5683609011       -0.8606377717
 C          6.4897232342        1.5461631846       -0.7054602894
 C          7.1504628770        0.3604593902       -0.4117864778
 O          8.4750917910        0.2226118995       -0.2254013378
 C          9.3061866066        1.3575842327       -0.3043601275
 C          6.3922415944       -0.8382586040       -0.2862326007
 O          7.1086934541       -1.9447023757       -0.0084983521
 C          6.4441717796       -3.1769026602        0.1389676038
 C          5.0168069074       -0.7896144562       -0.4456076136
 C          0.7054708755       -1.2319985075        0.8097422012
 C         -3.2550010313        2.6212674678        0.4351692694
 C         -4.0701197097        2.5082409074        1.7199711869
 C         -2.2254020450        3.7379874209        0.5989615552
 H         -4.8551157747        1.0065089164       -1.3598223913
 H         -7.1899267967        1.2197414601       -1.6960306665
 H         -8.0966943970        0.0389551500       -2.6726205309
 H         -6.3815667838        0.3469509310       -3.0319450876
 H         -6.5293284064       -3.7211476471        2.0249607713
 H         -7.4070597772       -4.5646510756        0.7245404744
 H         -5.6268102049       -4.5948646796        0.7533296005
 H         -4.3678377920       -2.8275398932        1.7471367140
 H         -3.4598000652       -0.4804866471        2.1416300192
 H         -2.6347954146        0.8091821742       -2.0973440744
 H         -1.8176544807        2.3128980231       -1.6842088584
 H         -0.8058406359       -0.5250867050       -1.2845754718
 H          0.0361299936        0.8214910042       -2.0648945782
 H         -2.4753711423       -1.3879494593        1.0541236312
 H          0.2413222402        2.0088470978        0.0631975305
 H          2.8722835329        0.0465033467        1.3044271560
 H          2.3420797236        1.6743594887        0.8715873459
 H          2.5355630650        1.2339748628       -1.4765622268
 H          2.5133624857       -0.5199093878       -1.2304930090
 H          4.6233400615        2.5030582278       -1.0871900569
 H          7.0447380439        2.4636585835       -0.8134503192
 H          9.0297712874        2.1081669633        0.4422423056
 H          9.2781280273        1.8060228878       -1.3018600209
 H         10.3122751594        0.9969459117       -0.0987620782
 H          7.2218548249       -3.9035222128        0.3659427311
 H          5.7244694210       -3.1483635831        0.9633002421
 H          5.9332215727       -3.4697709010       -0.7835477642
 H          4.4320414944       -1.6915435277       -0.3528098656
 H          0.9016842637       -1.7417563701       -0.1424828450
 H         -0.3202511565       -1.4427273284        1.1086148788
 H          1.3737953536       -1.6490802001        1.5628927582
 H         -3.9232697341        2.8870192529       -0.3902804602
 H         -3.4357252141        2.1494791676        2.5264703357
 H         -4.9091096141        1.8277011849        1.6017733661
 H         -4.4590261228        3.4851926186        1.9944269301
 H         -1.6015424159        3.5564617473        1.4705219225
 H         -1.5867100800        3.8459032149       -0.2741328130
 H         -2.7423934370        4.6826908973        0.7471467406
 H         -0.6118399265        0.7397801970        2.6957654547
