25
 energy: 103.715831188126 xtb: 6.6.1 (8d0f1dd)
C            3.32108552691032        1.19216190962260        0.03846402456519
N            2.37183293483122        0.10619741744770        0.04189642075445
C            2.70799832503300       -1.17759932411672        0.02135361699247
N            1.59465642700294       -1.93410138725885        0.06943571871036
C            0.45782723943048       -1.08346620213960        0.10742256093072
C            1.01247952221099        0.23068329779752        0.08895347085045
C            0.25785286095011        1.49754573934283        0.08957346816038
O            0.82555270530076        2.60117286485824        0.02374377104895
N           -1.03815878979905        1.26814112687045        0.17861089562873
C           -2.02663864703367        2.28135086142742        0.17985530077795
C           -3.84059556589260       -1.19493046145149       -1.38826970251528
O           -4.15618871027581       -0.12117965394041       -1.23565555815840
N           -0.77846107955552       -1.38047050224961        0.14257667764165
C           -1.32194290263604       -2.69530126705051        0.17943243291226
H            3.81154696872955        1.26424228753605        1.01089166572103
H            4.07861458467115        1.02556996548996       -0.72620215846449
H            2.77636567599239        2.12120934272292       -0.15062918239247
H            3.71102475155493       -1.55235463428684       -0.01849437704349
H           -1.61036579298095        3.29374032950871        0.21705511890060
H           -2.64036341757840        2.17874386852450       -0.72114243703361
H           -2.68161175111608        2.11896932813219        1.04155129600171
H           -0.80491735942472       -3.36770936852302        0.87692111115067
H           -1.32598469800266       -3.14494610320402       -0.81907078212921
H           -2.36634540751618       -2.58630148536097        0.48010906148494
H            1.57214766055070       -2.93975692276914        0.04535947940553
