25
 energy: 68.798508170146 xtb: 6.6.1 (8d0f1dd)
C            3.25194676254165        1.17260390612440        0.08357717289565
N            2.25839742100518        0.10891446076828        0.06252420261033
C            2.58663358021816       -1.18071498937945        0.09647830739384
N            1.45120173496537       -1.93789685937125        0.04908049395153
C            0.32376300260660       -1.09983083958158       -0.00052762521863
C            0.88703909313293        0.18686351457874       -0.00286325335186
C            0.01523086259565        1.36264324744096       -0.03064681049147
O            0.53038186678243        2.47522088420083        0.09229935409795
N           -1.33206964907234        1.05916912907167       -0.13838019851312
C           -2.17497278710114        2.20844973877617        0.07257527013464
C           -2.16220847779327       -0.22034048879382       -0.97390118995182
O           -3.33531952706095       -0.32666421757447       -1.04447641698118
N           -0.96709203233316       -1.37248895806612       -0.03422361442964
C           -1.42818544835267       -2.71381947306891        0.10545022764440
H            3.75960211176193        1.23705666046984        1.05376969222992
H            4.02505548825039        0.99103908805648       -0.66968989837607
H            2.75753304840606        2.12313426452160       -0.11689656188882
H            3.59229931595211       -1.55257758018068        0.03137509845659
H           -1.56540591333525        3.10803582714616        0.15842351277246
H           -2.82764827903349        2.31616007130801       -0.78346520607995
H           -2.78608831499334        2.08719348596081        0.96532675717267
H           -0.81607831145199       -3.24193451381236        0.85180024560253
H           -1.40689308150513       -3.26203931093512       -0.83728098566365
H           -2.47112578831078       -2.67816910377231        0.42581263638891
H            1.48695866556680       -2.94147226396032        0.06463195420578
