25
 energy: 0.000000000000 xtb: 6.6.1 (8d0f1dd)
C            3.23720163006194        1.16630919979326        0.08434469647475
N            2.29877817382611        0.07527477071623        0.03981603040599
C            2.58028210190900       -1.21425402444508        0.03006176031096
N            1.43813958087363       -1.93419271955128        0.00098261760884
C            0.39035688448383       -1.05887472636071       -0.00790371836672
C            0.93510056364412        0.21347819449412        0.01709077491437
C            0.09450143893243        1.40504303904423       -0.00410947031874
O            0.49712751527797        2.54126714362870       -0.00342325688240
N           -1.25076640035757        1.06271879480407       -0.03085478223738
C           -2.21907211982101        2.15522099834493       -0.05001256985998
C           -1.81739487048744       -0.20012725993278       -0.04692818574614
O           -2.99983886758376       -0.37846417018721       -0.07008878229737
N           -0.92618586207120       -1.30210215599479       -0.03682761578324
C           -1.46982264913417       -2.64643102187190       -0.06029820460571
H            3.71247264356769        1.21471455160235        1.06488849150277
H            4.00791497605742        1.03430808813993       -0.67357694370751
H            2.69910007168542        2.09770118228144       -0.09130154882931
H            3.56654120610678       -1.63682992603973        0.04233140067262
H           -1.67107961066214        3.09322851271934       -0.02552706933167
H           -2.82428953597071        2.09428624779827       -0.95318082946668
H           -2.87644029173232        2.07745725625962        0.81450067533302
H           -1.17061996399332       -3.19584890659852        0.83242232437030
H           -1.14560257411436       -3.17511610292205       -0.95688275822323
H           -2.55549792440841       -2.55659984320617       -0.07459039797972
H            1.38130855184625       -2.94313852034425       -0.01389874181052
25
 energy: -1.160195011374 xtb: 6.6.1 (8d0f1dd)
C            3.23136640975626        1.17703004771440        0.08588581548427
N            2.29327967144374        0.09307121454723        0.03784558841666
C            2.59668148910214       -1.23260125210493        0.03100365546220
N            1.45960006403084       -1.99095193060650        0.00092309248073
C            0.40335557624646       -1.08942356231690       -0.00858120034636
C            0.91797928142191        0.20855344169385        0.01504237616689
C            0.09306064858309        1.39663761175776       -0.00485632993105
O            0.49165722152474        2.56285892978112       -0.00323126511508
N           -1.26970007654835        1.06368116527821       -0.03123384668314
C           -2.23098317895360        2.16539595186510       -0.05002470546474
C           -1.82589086985960       -0.19029742534009       -0.04777157351400
O           -3.02353466637336       -0.36789123355434       -0.07134974917913
N           -0.93637975393158       -1.30055960738672       -0.03733712724048
C           -1.48649211175909       -2.63124637244194       -0.06011589958861
H            3.71412299941864        1.21869145694604        1.06614111071189
H            3.99928989581568        1.03663074830564       -0.67665149613456
H            2.69959451430358        2.11081975088424       -0.08820674052793
H            3.57594836052076       -1.64091320003106        0.04460705496924
H           -1.67636147841079        3.10165696689754       -0.02557470379247
H           -2.83996053330990        2.11623115865971       -0.95280815618750
H           -2.89225743336248        2.09953082428255        0.81391588913718
H           -1.17710663699674       -3.17604104737760        0.83261905378132
H           -1.15281503442133       -3.15577658642433       -0.95630561638099
H           -2.57134345633333       -2.53420772404061       -0.07394328561597
H            1.51910376602852       -3.05185072481632       -0.01295804476109
25
 energy: 10.604101316202 xtb: 6.6.1 (8d0f1dd)
C            3.22374773523571        1.18160695878990        0.08689126379030
N            2.28143012401281        0.10685848086673        0.03422153014835
C            2.60441296918749       -1.24370357402485        0.03297588159343
N            1.48003136233858       -2.05093005094506        0.00133757877302
C            0.41384313345941       -1.12883051104487       -0.00957980525407
C            0.89412291302604        0.19317635823577        0.01219873465874
C            0.09064825982516        1.37578131409012       -0.00554051781420
O            0.48104731511252        2.55827973266959       -0.00259116288828
N           -1.29560199034898        1.07130251630523       -0.03170845113464
C           -2.24558105987427        2.18381736929082       -0.05010936293837
C           -1.83256098139504       -0.17304387937271       -0.04868497719607
O           -3.03671024202028       -0.35547707694652       -0.07307335586271
N           -0.94996774888839       -1.29084662093983       -0.03788340991114
C           -1.50942580584602       -2.60964025391162       -0.05988120741749
H            3.71498220099365        1.21963377222244        1.06552188263549
H            3.98906978725783        1.03885282518482       -0.68046451314095
H            2.70143192790272        2.12155117956699       -0.08290181493399
H            3.58228031653128       -1.63372275371079        0.04800212401076
H           -1.68247298130133        3.11665087645738       -0.02558438042954
H           -2.85836257863739        2.14493534996554       -0.95220308346500
H           -2.91074172909697        2.12836259883141        0.81295895924559
H           -1.19091682301848       -3.15312024781211        0.83121863537082
H           -1.16783305409889       -3.13358254678494       -0.95419061201775
H           -2.59330098611340       -2.50996028421783       -0.07308547358247
H            1.72864260369246       -3.16892293059359       -0.01081056609255
25
 energy: 19.125425285316 xtb: 6.6.1 (8d0f1dd)
C            3.21955212807319        1.18078462607063        0.08678813172072
N            2.27810160397833        0.10547345910614        0.03220046450123
C            2.60509574205236       -1.24686176043143        0.03429341952181
N            1.49143624365905       -2.07384130719716        0.00180763723965
C            0.41914583334122       -1.14720338464819       -0.01026626316468
C            0.88768090521859        0.18101119767200        0.01105072806640
C            0.08956854050129        1.36550870449290       -0.00551743660194
O            0.47759572576988        2.54651719875146       -0.00197596343170
N           -1.30707864025114        1.07956962594992       -0.03204211372044
C           -2.25355682134783        2.19480446179326       -0.05032704788145
C           -1.83494627001364       -0.16579761339575       -0.04939060148101
O           -3.03770401319747       -0.35615203169360       -0.07443367233904
N           -0.95235510861826       -1.28386669563930       -0.03815634551664
C           -1.52208919696674       -2.59902915441887       -0.05961788146690
H            3.71294217581253        1.21833676007161        1.06425817318419
H            3.98252246871157        1.04232016476017       -0.68334844587427
H            2.69995093349303        2.12434231338980       -0.07870023290168
H            3.58867883470082       -1.62696125300011        0.05001760018974
H           -1.68895700040582        3.12641691943606       -0.02568029354280
H           -2.86826790033578        2.15955195982406       -0.95160265254814
H           -2.92063353215655        2.14295957572523        0.81185722660314
H           -1.20332745155286       -3.14253618110586        0.83117367455350
H           -1.18125378706117       -3.12363286020446       -0.95364006699322
H           -2.60574908248125       -2.49642409722165       -0.07227249063121
H            1.83586233701287       -3.21626202591483       -0.00944165133799
25
 energy: 21.373746996901 xtb: 6.6.1 (8d0f1dd)
C            3.21903331899146        1.17907476125298        0.08661554960806
N            2.27863792710607        0.10177326428598        0.03161918341302
C            2.60165245841795       -1.24696927199253        0.03501095852823
N            1.49165363385037       -2.07532437782709        0.00213916461415
C            0.41891044582726       -1.14871794962542       -0.01051928693499
C            0.88842149713575        0.17803889475778        0.01085705449420
C            0.08951449274212        1.36504572862072       -0.00543829839009
O            0.47766886344769        2.54255001539514       -0.00160166171465
N           -1.30876201370446        1.08361190628569       -0.03215411753614
C           -2.25525787037760        2.19737681862860       -0.05044747041427
C           -1.83632297028063       -0.16389697314469       -0.04963228552163
O           -3.03712730819442       -0.35769369555556       -0.07492478621140
N           -0.95203792939304       -1.28011662932199       -0.03816557744602
C           -1.52398657732819       -2.59677656835036       -0.05946741885461
H            3.71194347751072        1.21697856400234        1.06382383516796
H            3.98104804453576        1.04350957477980       -0.68437698344695
H            2.69850483668298        2.12295672281932       -0.07745836991545
H            3.58802078174289       -1.62438684507414        0.05031113196441
H           -1.69159595916207        3.12915614107187       -0.02578312547101
H           -2.86991076615281        2.16124503804946       -0.95171870955652
H           -2.92222010750512        2.14465640566144        0.81178654577464
H           -1.20571192187907       -3.14014450272149        0.83132516974220
H           -1.18406031653239       -3.12139787791163       -0.95358228116399
H           -2.60760938895427       -2.49467333587876       -0.07194147907391
H            1.86180801940927       -3.22684720603541       -0.00924284550797
25
 energy: 22.293526836722 xtb: 6.6.1 (8d0f1dd)
C            3.21914705527481        1.17804172085648        0.08649665212331
N            2.27974054404665        0.09896780594777        0.03132475061867
C            2.59807369486598       -1.24679580917137        0.03587126912135
N            1.48908084262481       -2.07315464109187        0.00252563973344
C            0.41725869703556       -1.14703406440492       -0.01076156037466
C            0.88975802030651        0.17776006339803        0.01071558652690
C            0.08959716806247        1.36613447090211       -0.00549817739804
O            0.47807029862279        2.54171225693994       -0.00136988433446
N           -1.30835871985198        1.08506045203602       -0.03220819925195
C           -2.25514056592736        2.19761554173679       -0.05045485792910
C           -1.83763612677142       -0.16331829231520       -0.04970156235181
O           -3.03719580918912       -0.35787093822192       -0.07503933525197
N           -0.95213145311192       -1.27798767293186       -0.03815098641909
C           -1.52345360022722       -2.59650287102865       -0.05944407044584
H            3.71151094611963        1.21624420141206        1.06365166440580
H            3.98091579075592        1.04380835431833       -0.68461306876151
H            2.69737403100651        2.12146635821252       -0.07732799186616
H            3.58574139376029       -1.62326829787008        0.05005646299448
H           -1.69255046131593        3.12989779487518       -0.02580455735478
H           -2.86980787591911        2.16085810076379       -0.95173910719521
H           -2.92201231134254        2.14425839747597        0.81187778208541
H           -1.20461410478800       -3.13914869174974        0.83137073657549
H           -1.18314623808195       -3.12036721710590       -0.95365451568188
H           -2.60709130163787       -2.49568111233066       -0.07185872162129
H            1.86908475361869       -3.23166730848082       -0.00923005179986
25
 energy: 22.678859821169 xtb: 6.6.1 (8d0f1dd)
C            3.21927882363273        1.17801684031370        0.08646003615985
N            2.28052838972642        0.09809114975692        0.03117371623058
C            2.59656098357813       -1.24689048368666        0.03671443911717
N            1.48714737337689       -2.07148540503303        0.00284078931594
C            0.41620797394308       -1.14553306872388       -0.01098712676124
C            0.89043547090294        0.17856129536836        0.01059039005321
C            0.08962228640581        1.36696140473808       -0.00556301873723
O            0.47819715109285        2.54242098558800       -0.00133781968774
N           -1.30774119508545        1.08492227156057       -0.03221396588054
C           -2.25468591414425        2.19722728923161       -0.05042638287030
C           -1.83825215785487       -0.16331201405794       -0.04966319102783
O           -3.03754993966696       -0.35736662038034       -0.07494684475473
N           -0.95242379312065       -1.27743154751070       -0.03814119069767
C           -1.52277611350992       -2.59674357686617       -0.05948352254917
H            3.71140871421251        1.21634472439132        1.06366548189158
H            3.98122303135541        1.04395306501199       -0.68447506786424
H            2.69681360118263        2.12095641143404       -0.07755506099681
H            3.58446374500812       -1.62325293957569        0.04951066170195
H           -1.69261910867117        3.12986606150593       -0.02578085922909
H           -2.86947800858782        2.16044260866893       -0.95168829949354
H           -2.92163313094144        2.14382384363865        0.81191659249943
H           -1.20340018489397       -3.13894072656070        0.83131636353348
H           -1.18194729754902       -3.12009996698412       -0.95370475424581
H           -2.60642177571399       -2.49653590898668       -0.07189329136304
H            1.86925574325820       -3.23496709067015       -0.00929417819690
25
 energy: 23.244225139468 xtb: 6.6.1 (8d0f1dd)
C            3.21939257515299        1.17839838280734        0.08646555201777
N            2.28133091892932        0.09779909826670        0.03099942974030
C            2.59563491951024       -1.24720113258212        0.03817075532602
N            1.48534186638674       -2.06978124426998        0.00331371654245
C            0.41537730945987       -1.14391162849751       -0.01137418004651
C            0.89095877826280        0.17998579255062        0.01040240256609
C            0.08955881137113        1.36784618725159       -0.00563404393153
O            0.47812664916797        2.54376083192287       -0.00141782646841
N           -1.30713832054446        1.08444294006292       -0.03221084306211
C           -2.25427947566603        2.19680140321033       -0.05039218561419
C           -1.83867803474699       -0.16337050656364       -0.04958539091475
O           -3.03802371855008       -0.35657497684676       -0.07475159842854
N           -0.95279297118327       -1.27722367317207       -0.03814459939039
C           -1.52213035992288       -2.59697529461452       -0.05954479488844
H            3.71136114875964        1.21684630916131        1.06376139693410
H            3.98168571579348        1.04426631608186       -0.68419319986143
H            2.69633622806077        2.12080329077379       -0.07785600133562
H            3.58352869528077       -1.62359012045010        0.04837113385456
H           -1.69257717274875        3.12974650650979       -0.02574285857035
H           -2.86919862623791        2.16009408437519       -0.95163367230754
H           -2.92133503478708        2.14344713364971        0.81193696650055
H           -1.20230954049572       -3.13885067138955        0.83123141128216
H           -1.18082182948156       -3.11996385611068       -0.95374289300651
H           -2.60578698758358       -2.49710827379890       -0.07196141989033
H            1.86865312374880       -3.24065829615615       -0.00943336090008
25
 energy: 23.780997781316 xtb: 6.6.1 (8d0f1dd)
C            3.21942057315434        1.17881088266741        0.08651249404560
N            2.28150819306696        0.09820512927612        0.03092484887950
C            2.59577519688694       -1.24739547475536        0.03964886177813
N            1.48499385768143       -2.06900934880390        0.00374040744808
C            0.41532281511035       -1.14326696861020       -0.01176070565820
C            0.89096055478074        0.18099268013708        0.01025716126219
C            0.08940944878027        1.36825766177766       -0.00566398288686
O            0.47789489748412        2.54463297494509       -0.00156898791192
N           -1.30707244207698        1.08424586632789       -0.03220653115486
C           -2.25434000571205        2.19680306542087       -0.05038133142076
C           -1.83865380712770       -0.16333529611786       -0.04953178333527
O           -3.03822307769937       -0.35610600890874       -0.07459374084032
N           -0.95296493898324       -1.27733759816030       -0.03818804329168
C           -1.52200480873660       -2.59692507863530       -0.05958830694379
H            3.71138951327448        1.21729778404842        1.06386226937520
H            3.98192903262062        1.04451747298596       -0.68400665825025
H            2.69632404914643        2.12108034386211       -0.07797542459257
H            3.58351752132692       -1.62382276617573        0.04711461128525
H           -1.69259234999379        3.12974936469189       -0.02572531327488
H           -2.86924296728151        2.16009498608443       -0.95162793948227
H           -2.92140038000178        2.14343171183102        0.81193385222610
H           -1.20216400220932       -3.13883012015611        0.83118558790429
H           -1.18063760163980       -3.11997127245223       -0.95374760781028
H           -2.60568014135049       -2.49698234904143       -0.07200901533866
H            1.86874553743525       -3.24610904006676       -0.00957082586450
25
 energy: 24.375021741868 xtb: 6.6.1 (8d0f1dd)
C            3.21940802996718        1.17909214433250        0.08658772400597
N            2.28101158772971        0.09912782753669        0.03099816910967
C            2.59661901382235       -1.24722878014867        0.04159784113350
N            1.48595725586370       -2.06875965683759        0.00426377120638
C            0.41582343841204       -1.14347482954892       -0.01225931829684
C            0.89049004673162        0.18144922962437        0.01012590353348
C            0.08919711874499        1.36832054491418       -0.00566602349710
O            0.47759867731610        2.54492262776424       -0.00177345969289
N           -1.30751939723557        1.08452076866549       -0.03220475693811
C           -2.25484671597942        2.19724275566240       -0.05039085137470
C           -1.83831256028384       -0.16314224291152       -0.04951319555576
O           -3.03814301874532       -0.35601332347089       -0.07447539743750
N           -0.95296587196652       -1.27755919470281       -0.03832241361989
C           -1.52231714897467       -2.59659130649480       -0.05962972554724
H            3.71148639697381        1.21751123467219        1.06393579435163
H            3.98190320227313        1.04454760051164       -0.68396647250772
H            2.69683051816899        2.12166888398737       -0.07792229008032
H            3.58416488634094       -1.62367797711847        0.04544648227371
H           -1.69275154883719        3.12994047095623       -0.02573367309774
H           -2.86960437318777        2.16041670671704       -0.95166671529529
H           -2.92180120454192        2.14375359625622        0.81192469538724
H           -1.20275567362371       -3.13877041658393        0.83117973891143
H           -1.18121883485939       -3.12003920118798       -0.95374142794175
H           -2.60601841611937       -2.49638896566843       -0.07203679695249
H            1.86997925994632       -3.25183989475455       -0.00972370593040
25
 energy: 24.286102359048 xtb: 6.6.1 (8d0f1dd)
C            3.21941664349342        1.17893144045042        0.08658338718397
N            2.28069659444457        0.09921688561074        0.03113140828835
C            2.59674539841445       -1.24689866361756        0.04192096228101
N            1.48650008818168       -2.06887392693620        0.00434091932307
C            0.41594493213309       -1.14388534625181       -0.01234000698762
C            0.89033820268544        0.18099030396105        0.01011739270282
C            0.08921428243658        1.36817081793490       -0.00566313542078
O            0.47767348410201        2.54453001865988       -0.00177166393282
N           -1.30768294792031        1.08474152582127       -0.03220685952377
C           -2.25494605392382        2.19735577905793       -0.05039459302544
C           -1.83826450522999       -0.16309977644227       -0.04953714297722
O           -3.03802233774590       -0.35623326998054       -0.07449759006792
N           -0.95289290125478       -1.27753009990592       -0.03840151680665
C           -1.52244513957541       -2.59654211987817       -0.05963951440559
H            3.71151354954438        1.21728275929179        1.06389069746718
H            3.98173788216569        1.04431750914313       -0.68407533532432
H            2.69707100913485        2.12171052281289       -0.07785726366073
H            3.58429928710642       -1.62342410853041        0.04523053316003
H           -1.69280000841905        3.12999493870482       -0.02574512205534
H           -2.86968155996572        2.16050842950114       -0.95166956155399
H           -2.92186876319627        2.14385683935917        0.81192853037700
H           -1.20291732452531       -3.13872592370637        0.83118655880577
H           -1.18141892401394       -3.12005334103370       -0.95374556768927
H           -2.60614712964548       -2.49637553708600       -0.07202835835175
H            1.87015090950963       -3.25093705476818       -0.00972326165867
