25
 energy: 0.000000000000 xtb: 6.6.1 (8d0f1dd)
C            3.23720163006194        1.16630919979326        0.08434469647475
N            2.29877817382611        0.07527477071623        0.03981603040599
C            2.58028210190900       -1.21425402444508        0.03006176031096
N            1.43813958087363       -1.93419271955128        0.00098261760884
C            0.39035688448383       -1.05887472636071       -0.00790371836672
C            0.93510056364412        0.21347819449412        0.01709077491437
C            0.09450143893243        1.40504303904423       -0.00410947031874
O            0.49712751527797        2.54126714362870       -0.00342325688240
N           -1.25076640035757        1.06271879480407       -0.03085478223738
C           -2.21907211982101        2.15522099834493       -0.05001256985998
C           -1.81739487048744       -0.20012725993278       -0.04692818574614
O           -2.99983886758376       -0.37846417018721       -0.07008878229737
N           -0.92618586207120       -1.30210215599479       -0.03682761578324
C           -1.46982264913417       -2.64643102187190       -0.06029820460571
H            3.71247264356769        1.21471455160235        1.06488849150277
H            4.00791497605742        1.03430808813993       -0.67357694370751
H            2.69910007168542        2.09770118228144       -0.09130154882931
H            3.56654120610678       -1.63682992603973        0.04233140067262
H           -1.67107961066214        3.09322851271934       -0.02552706933167
H           -2.82428953597071        2.09428624779827       -0.95318082946668
H           -2.87644029173232        2.07745725625962        0.81450067533302
H           -1.17061996399332       -3.19584890659852        0.83242232437030
H           -1.14560257411436       -3.17511610292205       -0.95688275822323
H           -2.55549792440841       -2.55659984320617       -0.07459039797972
H            1.38130855184625       -2.94313852034425       -0.01389874181052
25
 energy: 0.027860950165 xtb: 6.6.1 (8d0f1dd)
C            3.23021917066698        1.17673134683338        0.08574111781111
N            2.29096208605384        0.09319773530195        0.03787637435317
C            2.59469345601317       -1.23231020846144        0.03108118249963
N            1.46220293268117       -1.99727577257629        0.00093823407728
C            0.40347132305929       -1.09244938884881       -0.00855599711300
C            0.91618437385407        0.20792998873300        0.01508860650997
C            0.09187823779768        1.39777966566449       -0.00476587153180
O            0.49051202584491        2.56402143697690       -0.00309070859029
N           -1.27071780402328        1.06579651032716       -0.03122030423084
C           -2.23217942316389        2.16769417900996       -0.05005283654861
C           -1.82624600618643       -0.18848318373553       -0.04776981458145
O           -3.02392763806578       -0.36553803651582       -0.07141045253725
N           -0.93700620647935       -1.29985457918526       -0.03732123472776
C           -1.48744395966346       -2.62981749675385       -0.06010211516852
H            3.71337647067461        1.21783373874494        1.06583789906615
H            3.99832543518279        1.03547535026007       -0.67654396810989
H            2.70068310692018        2.11180071143266       -0.08831105574560
H            3.57360133661437       -1.63892968188888        0.04467551715342
H           -1.67848487601981        3.10459326169323       -0.02561262105507
H           -2.84125185567305        2.11815621211062       -0.95276332292781
H           -2.89356661912963        2.10145590696211        0.81378222511562
H           -1.17709215312693       -3.17401891883595        0.83253823750038
H           -1.15284884217460       -3.15374313807155       -0.95617921274390
H           -2.57225791604594       -2.53336041914188       -0.07390968732297
H            1.53912801232530       -3.06765661786321       -0.01291629500471
25
 energy: 16.016253120597 xtb: 6.6.1 (8d0f1dd)
C            3.22202365964154        1.18059098941374        0.08660821590687
N            2.27651917993517        0.10753740037005        0.03437863524585
C            2.59854919216570       -1.24318481738902        0.03311630352003
N            1.48327216988216       -2.06508946915878        0.00131274363400
C            0.41320403391058       -1.13397503881748       -0.00948473378715
C            0.88994578458765        0.19248340208106        0.01236997846302
C            0.08808757040060        1.37889106057742       -0.00529344008743
O            0.47873403578962        2.56145781126242       -0.00224328567143
N           -1.29814007637948        1.07678378901677       -0.03165530972562
C           -2.24867408087824        2.18887175293122       -0.05018376486797
C           -1.83393092759518       -0.16787670409241       -0.04862829941180
O           -3.03815956332292       -0.34976066623441       -0.07314859958147
N           -0.95217555036596       -1.28748775223116       -0.03779196505333
C           -1.51072060029727       -2.60592274144599       -0.05984520632157
H            3.71350420570919        1.21761364595999        1.06517335636449
H            3.98757618588755        1.03565425709825       -0.68026188700390
H            2.70438548203956        2.12324690403193       -0.08349538973639
H            3.57595869646635       -1.63045728668022        0.04795643691949
H           -1.68765718782724        3.12303098021164       -0.02568514716317
H           -2.86127331103474        2.14824609425464       -0.95228944513334
H           -2.91371624309556        2.13168835790006        0.81282202194303
H           -1.18944306502437       -3.14848482077989        0.83078394914034
H           -1.16643315559118       -3.12887477480632       -0.95365828917287
H           -2.59454787877162       -2.50957676269763       -0.07305972647490
H            1.77532611170428       -3.20637700860385       -0.01076325579748
25
 energy: 29.921129630815 xtb: 6.6.1 (8d0f1dd)
C            3.21716020275242        1.17934081657120        0.08648667559759
N            2.27162725607981        0.10656866700286        0.03230990345001
C            2.59739763331202       -1.24755796963194        0.03464834371864
N            1.49643487867435       -2.09580328577693        0.00178567759301
C            0.41866076567380       -1.15460351476900       -0.01024078523299
C            0.88125987635730        0.17974619754228        0.01118137533198
C            0.08582527380396        1.36884678220269       -0.00516763876127
O            0.47373905688584        2.55048373193216       -0.00141248197308
N           -1.31243105448094        1.08815616964517       -0.03197577880843
C           -2.25954771848931        2.20301785954423       -0.05043354672726
C           -1.83785271282008       -0.15734313125053       -0.04936585127761
O           -3.04085704500412       -0.34805194406267       -0.07460441119005
N           -0.95615591471945       -1.27727821135083       -0.03805600499837
C           -1.52477133019221       -2.59196521095102       -0.05956542406340
H            3.71083769336637        1.21580988834750        1.06390395830125
H            3.97999139621087        1.03773701714628       -0.68331272830207
H            2.70415841193471        2.12684520639406       -0.07950194721699
H            3.58121607358041       -1.62293329082291        0.05010877805937
H           -1.69787950743947        3.13647964399670       -0.02582932890572
H           -2.87445399430219        2.16606720247117       -0.95158518272151
H           -2.92693004712267        2.14951645861219        0.81149020325252
H           -1.20126617545954       -3.13378844545080        0.83059709569905
H           -1.17935704549154       -3.11479935677735       -0.95291078792263
H           -2.60846288024685       -2.49461805903654       -0.07220278641644
H            1.91387157507271       -3.28084461935597       -0.00931343033834
25
 energy: 36.556592836095 xtb: 6.6.1 (8d0f1dd)
C            3.21652777110151        1.17717531049532        0.08625922868870
N            2.27098197879436        0.10323301717452        0.03166995690140
C            2.59098146744787       -1.24830039027033        0.03582773427255
N            1.49603449154087       -2.10053064743981        0.00255948096529
C            0.41702006245670       -1.15574657271285       -0.01070594561144
C            0.88013082747729        0.17737394586755        0.01103063894966
C            0.08467464417292        1.36925265635465       -0.00490169831926
O            0.47232856625260        2.54732954650013       -0.00104088046050
N           -1.31668556449191        1.09514130784194       -0.03202752406315
C           -2.26326416837504        2.20823715229159       -0.05056961560674
C           -1.84140714445850       -0.15260159976156       -0.04960877462035
O           -3.04223987375816       -0.34796672171134       -0.07510660439974
N           -0.95790524658376       -1.26998682888783       -0.03816442963975
C           -1.52769920910881       -2.58718314919270       -0.05944433490791
H            3.70963960523367        1.21413658645098        1.06342855593439
H            3.97815635533891        1.03800836787269       -0.68448104165314
H            2.70382352305661        2.12585715037902       -0.07847071871085
H            3.57834477058414       -1.61958324865249        0.05040385736135
H           -1.70233076296085        3.14169658877996       -0.02595479946755
H           -2.87801610150377        2.17002646514451       -0.95181930117930
H           -2.93046522296886        2.15353961367680        0.81149424707848
H           -1.20327250651542       -3.12841398215062        0.83054362334214
H           -1.18187470502155       -3.10963770281422       -0.95267107375553
H           -2.61142226915141       -2.49253275814965       -0.07187425416763
H            1.97015337937681       -3.31949550491425       -0.00934243078386
25
 energy: 42.756778203389 xtb: 6.6.1 (8d0f1dd)
C            3.21449875868636        1.17378357305083        0.08577904729249
N            2.26356529979246        0.10298331101891        0.03118873151675
C            2.57332865391839       -1.24700543644020        0.03824907098873
N            1.49127657975317       -2.11073290700890        0.00568323384808
C            0.41099145711672       -1.15647284825884       -0.01133831775000
C            0.87222235621712        0.17830328679242        0.01097080175823
C            0.08204132553224        1.37242385141671       -0.00437048935237
O            0.46757354791765        2.54846519170633       -0.00110735078174
N           -1.32415917701398        1.10608862757088       -0.03194636738320
C           -2.26813655406640        2.21750427845851       -0.05064639532118
C           -1.84730940600867       -0.14304868173326       -0.04981392807472
O           -3.04667938107392       -0.34207819947011       -0.07535874016305
N           -0.96507109169288       -1.25760336723679       -0.03863710827115
C           -1.53242936929575       -2.57870121345474       -0.05945160307980
H            3.70760851627438        1.20984863855199        1.06255701819605
H            3.97510703572443        1.03385708871359       -0.68542269844909
H            2.70661779567817        2.12612139328057       -0.07825421139640
H            3.56429719664317       -1.61335001170890        0.05005883038129
H           -1.70659552771733        3.15026984189742       -0.02602151235689
H           -2.88226769554897        2.17740247349610       -0.95224029482869
H           -2.93472018548420        2.16103969524066        0.81180510684632
H           -1.20340171949952       -3.11890365363057        0.82940885897304
H           -1.18253077486256       -3.10052641190553       -0.95139638573729
H           -2.61618756137216       -2.49114481363678       -0.07172113005399
H            2.09257458831828       -3.40949510453827       -0.01094027065413
25
 energy: 37.473381245778 xtb: 6.6.1 (8d0f1dd)
C            3.21196100057185        1.16699874559047        0.08533414238198
N            2.24747122689630        0.10307217700842        0.03142600318636
C            2.53052932040869       -1.24265976496900        0.03948339307363
N            1.47113441071921       -2.11599854028416        0.00950140547671
C            0.39628338128277       -1.14550628873105       -0.01203179124814
C            0.85874984951204        0.18826277836945        0.01097790220465
C            0.07790619636201        1.38409770626307       -0.00380123404060
O            0.45817543144269        2.55492982429615       -0.00140391208527
N           -1.33228541134186        1.12401727301482       -0.03185698611600
C           -2.27359180161843        2.23044357994400       -0.05082828620891
C           -1.85463319945349       -0.12918561190316       -0.04979698687920
O           -3.05228585467558       -0.33126427511098       -0.07554391234858
N           -0.97763783198022       -1.23565941273006       -0.03880943863864
C           -1.53784933899642       -2.56556999663775       -0.05926243991239
H            3.70491597326160        1.20269410863579        1.06123573037493
H            3.97125167485883        1.02617276994716       -0.68611489996332
H            2.71297099997529        2.12607979070130       -0.07797146748565
H            3.52851604186976       -1.60800028400009        0.04929181534925
H           -1.71109160824253        3.16177562039192       -0.02621325262757
H           -2.88622634398493        2.18588766390039       -0.95291844353974
H           -2.93868477648107        2.16970285959938        0.81218975744463
H           -1.20231493172224       -3.10607671917436        0.82693376377712
H           -1.18194268400287       -3.08804683860988       -0.94841890099665
H           -2.62168645882185       -2.48948969245087       -0.07148845959628
H            2.31257940209667       -3.57764887088896       -0.01287960543503
25
 energy: 32.571603164371 xtb: 6.6.1 (8d0f1dd)
C            3.20909556032595        1.15967630302292        0.08522782207816
N            2.23222755720593        0.10045675143450        0.03300101125763
C            2.48427514431109       -1.24005452454157        0.03799589937331
N            1.44532893664067       -2.10763599986060        0.00882878410045
C            0.38078950400463       -1.12634290352794       -0.00998271223928
C            0.84885026091968        0.20200868261289        0.01099692993350
C            0.07086557788872        1.40136499202765       -0.00482677212454
O            0.44719789383015        2.56337171302598       -0.00102014623116
N           -1.33364554113510        1.13904372573497       -0.03213189485896
C           -2.27658044145706        2.24052931973261       -0.05100213270283
C           -1.85931106974053       -0.12069856278595       -0.04973102177819
O           -3.05629161302298       -0.31879744539485       -0.07579071870477
N           -0.98656876002370       -1.21866680429357       -0.03740526651726
C           -1.54025346101694       -2.55571211586960       -0.05878359385633
H            3.70175956323202        1.19468373424231        1.06023810676260
H            3.96728074034004        1.01661899431510       -0.68589885312700
H            2.71917800310969        2.12476247304009       -0.07842246906535
H            3.48642351359696       -1.60998194219836        0.04926754031231
H           -1.71666919083344        3.17280243477507       -0.02654794519730
H           -2.88862607769360        2.19184526525530       -0.95301683708361
H           -2.94102959807506        2.17581689546224        0.81196446035060
H           -1.19865927509730       -3.09505842297122        0.82504937570504
H           -1.17820187232489       -3.07670525052453       -0.94566155576685
H           -2.62445222538147       -2.48854495920886       -0.07133382601350
H            2.51923153833276       -3.73575375133252       -0.01398028845941
25
 energy: 23.201074283257 xtb: 6.6.1 (8d0f1dd)
C            3.21074964644003        1.15621026834584        0.08477986301000
N            2.22822494423026        0.09227330407169        0.03770619323971
C            2.43046589356000       -1.23559959259202        0.03223312346624
N            1.37502885731680       -2.02492858016224        0.00454216505888
C            0.35260786741782       -1.05907683260064       -0.00687626278995
C            0.85676872264616        0.23886577040996        0.01205125893544
C            0.06083493479435        1.43572956175146       -0.00577475588945
O            0.44263721104083        2.58325322478392       -0.00066053848714
N           -1.31352931554581        1.13870472747948       -0.03215497483032
C           -2.26942667056911        2.23481690185360       -0.05090257193435
C           -1.85970841946371       -0.13157049928069       -0.04944321868819
O           -3.05811521925616       -0.30478757911779       -0.07536332455999
N           -0.99188516196575       -1.21321423681869       -0.03594403271355
C           -1.53327139992864       -2.55861649875197       -0.05872960393332
H            3.70048460543055        1.19127454461161        1.05979951780061
H            3.96900082365106        1.01077448384959       -0.68419529244174
H            2.71977181796796        2.11938650296384       -0.08117904086285
H            3.43799839174097       -1.62871783659353        0.04944558496965
H           -1.71699622786686        3.17149283016861       -0.02648576354687
H           -2.88263276832566        2.18553785678034       -0.95189717755905
H           -2.93495331355225        2.16917837901583        0.81094608257298
H           -1.19230032327850       -3.09565676368133        0.82487179262051
H           -1.17107577855942       -3.07648883179399       -0.94558222188692
H           -2.61789923775649       -2.49050938154818       -0.07164011348977
H            2.66943478776774       -3.91930312097268       -0.01251279191328
25
 energy: 20.531609481531 xtb: 6.6.1 (8d0f1dd)
C            3.21363096942658        1.16221345615133        0.08388937440209
N            2.23336331488803        0.09361874556901        0.04012942698547
C            2.40596638270226       -1.23291009926614        0.03047293831760
N            1.30343145134044       -1.95179280862464        0.00241732122764
C            0.33207392830444       -1.00012000627260       -0.00652168446325
C            0.86822515479480        0.27452070556093        0.01359346516531
C            0.04846341997042        1.46477998215103       -0.00461095337950
O            0.43929574878444        2.60867679454120       -0.00023095946581
N           -1.30186227502676        1.14033375843633       -0.03177368810849
C           -2.26844966915929        2.23335770685743       -0.05080635078037
C           -1.86467810815907       -0.13761324833147       -0.04951372609428
O           -3.06495860316133       -0.28467607273209       -0.07514876590278
N           -1.00138746707518       -1.20815060292964       -0.03694878329568
C           -1.52752693054653       -2.55878836196249       -0.05910051966144
H            3.70086593040258        1.19336119652064        1.05992782943539
H            3.97197962223371        1.01094826931546       -0.68339965150889
H            2.71913164598921        2.12122016837201       -0.08374899780067
H            3.41218043448757       -1.64056431115636        0.04838813212317
H           -1.71994808422066        3.17277230427378       -0.02620431076144
H           -2.88017626715977        2.18030797850623       -0.95216104644565
H           -2.93247074692989        2.16352603480340        0.81141073195286
H           -1.18545753343207       -3.09412800097923        0.82458736338971
H           -1.16409720407606       -3.07473276682990       -0.94588847843981
H           -2.61254697138549       -2.49171756091150       -0.07196402415276
H            2.78716652494387       -4.15541465889069       -0.00976074659112
25
 energy: 20.797730543694 xtb: 6.6.1 (8d0f1dd)
C            3.21547347143462        1.16913070894071        0.08414562322585
N            2.23491754855729        0.10367918301672        0.04047107852065
C            2.40335092912854       -1.23055162726826        0.03050611118879
N            1.26586515746468       -1.91667953149746        0.00123673612266
C            0.32480632647989       -0.96580277584734       -0.00679068231888
C            0.87364123847675        0.30309747040158        0.01485035086708
C            0.04029859411995        1.48494049400816       -0.00435369574941
O            0.43419519376462        2.63305651444159       -0.00089618038474
N           -1.30187417904204        1.14694457991582       -0.03170945497172
C           -2.27278844051145        2.23655140582401       -0.05085701477826
C           -1.87112064846748       -0.13403936486508       -0.04920080986269
O           -3.07208925890201       -0.26987329093588       -0.07454107035238
N           -1.00882643557846       -1.19978204866165       -0.03758507517569
C           -1.52045310775963       -2.55417926450373       -0.05901799083529
H            3.70239372235599        1.19760638219230        1.06077538405982
H            3.97452608692879        1.01330497805408       -0.68215119137906
H            2.72038670775702        2.12624088847486       -0.08462295120227
H            3.40026074208241       -1.64505275463043        0.04661406938074
H           -1.72377303209846        3.17535719337609       -0.02639095638668
H           -2.88158545281301        2.17767680976842       -0.95300785833982
H           -2.93378773810804        2.16102804766866        0.81237641454784
H           -1.17770702564883       -3.09065805186246        0.82443704619767
H           -1.15604898410574       -3.07131104279349       -0.94540278972428
H           -2.60607546860472       -2.49335292837987       -0.07210109062802
H            2.84822872102553       -4.36830337266532       -0.00975010587463
25
 energy: 20.787370558563 xtb: 6.6.1 (8d0f1dd)
C            3.21574499204592        1.17511940344555        0.08436070957790
N            2.23206970293168        0.11686000520153        0.03986208177346
C            2.41206617999320       -1.22145625529417        0.03090010433995
N            1.26577993735707       -1.90294702564032        0.00141773749467
C            0.32631954468220       -0.95388023427057       -0.00689894831857
C            0.87383497351382        0.31805083295952        0.01586070843808
C            0.03785024159290        1.49252435232479       -0.00412421107524
O            0.42992456709607        2.64503473625506       -0.00138252851259
N           -1.30489270592001        1.15025406066690       -0.03170446989700
C           -2.27497163027231        2.23891598792685       -0.05085507072757
C           -1.87402908123132       -0.13010865047808       -0.04914173467064
O           -3.07497575112049       -0.26658591745282       -0.07435265074379
N           -1.01013420432646       -1.19580575607957       -0.03767252441474
C           -1.51642940505879       -2.55029767405019       -0.05896940214674
H            3.70362979292076        1.20120844502472        1.06107742859164
H            3.97536533460098        1.01569969110923       -0.68150851681380
H            2.72275442771032        2.13268441889697       -0.08495244591168
H            3.40051840224748       -1.63833877007832        0.04612040805504
H           -1.72431319308627        3.17639641971848       -0.02629543258790
H           -2.88239318152997        2.17846500332239       -0.95326869943901
H           -2.93471093255947        2.16169006673804        0.81261220508299
H           -1.17503943344673       -3.08859004735562        0.82458289617814
H           -1.15304354842531       -3.06922969118538       -0.94543156671366
H           -2.60273429420549       -2.49244478024060       -0.07228940479652
H            2.84402393242639       -4.50419001929237       -0.01091277661509
25
 energy: 20.372867977345 xtb: 6.6.1 (8d0f1dd)
C            3.21761946102699        1.18320745812191        0.08488101681727
N            2.22848227121639        0.13592418155142        0.03914380789251
C            2.42837704289421       -1.20280334013743        0.03147164104119
N            1.28863125421382       -1.89146772947715        0.00219656773813
C            0.33270212577968       -0.95262316695708       -0.00685848997651
C            0.87189093528532        0.32657590434184        0.01653084930917
C            0.03885323722233        1.49438686285203       -0.00433660833951
O            0.42624300285371        2.65114314982910       -0.00190567397540
N           -1.30839833678158        1.15145618763117       -0.03182325778234
C           -2.27636135468288        2.23973028936368       -0.05089741457315
C           -1.87318177496270       -0.12607471656569       -0.04904616664604
O           -3.07399920719915       -0.26962569231640       -0.07421159427088
N           -1.00650761017630       -1.19518958634822       -0.03736228058619
C           -1.51330828311418       -2.54774748031950       -0.05883027080703
H            3.70622473133504        1.20532915064715        1.06176325370792
H            3.97688183707261        1.01864711882115       -0.68107572411713
H            2.72849909800782        2.14226961576704       -0.08477407638436
H            3.40811711975944       -1.62609916548532        0.04604799072484
H           -1.72499778801633        3.17665826800481       -0.02640989211198
H           -2.88354454371626        2.17931086912774       -0.95329846290632
H           -2.93579012813178        2.16255155787183        0.81262390587187
H           -1.17391380777526       -3.08815448971965        0.82480280937620
H           -1.15184942788342       -3.06873480881659       -0.94549660201878
H           -2.60044327613568       -2.49112678582380       -0.07222823862117
H            2.78198808984442       -4.61851504979200       -0.01387319321502
25
 energy: 19.974705972493 xtb: 6.6.1 (8d0f1dd)
C            3.22015887327415        1.19141076476042        0.08504809676573
N            2.22829235499852        0.15138327344764        0.03865973531928
C            2.44334208736099       -1.18350764128054        0.03218801951134
N            1.32132117091377       -1.88502487386583        0.00355339597593
C            0.34074524179984       -0.96153448861032       -0.00669239824211
C            0.86965355475229        0.32460152730914        0.01647373557404
C            0.04222430997780        1.49110807142253       -0.00425266897284
O            0.42467182368067        2.64947220449736       -0.00176313339464
N           -1.31039609981879        1.15058507075973       -0.03179151305543
C           -2.27654283838756        2.23896249687786       -0.05088994285225
C           -1.86847121790269       -0.12398466959208       -0.04907013608247
O           -3.06919896772585       -0.27695965392199       -0.07441978018007
N           -0.99928518067129       -1.19747626883635       -0.03698382398187
C           -1.51198437954404       -2.54771306178820       -0.05884926161001
H            3.70809319502784        1.20995056754809        1.06220889216544
H            3.97773676496611        1.02274989577521       -0.68156918426215
H            2.73312787128991        2.15118944550428       -0.08462124393121
H            3.41885886359336       -1.61655427006092        0.04658909645992
H           -1.72490349850642        3.17595008236996       -0.02630079583761
H           -2.88422045382105        2.17999466657211       -0.95337368614523
H           -2.93661755855261        2.16314052964334        0.81257777895693
H           -1.17415754077052       -3.08913387096989        0.82489702327210
H           -1.15207327363399       -3.06960899701225       -0.94575788721430
H           -2.59933796897218       -2.48956174975915       -0.07226290179332
H            2.69117753460790       -4.67041044861814       -0.01656352029792
25
 energy: 19.845070915324 xtb: 6.6.1 (8d0f1dd)
C            3.22174047077292        1.19489321209398        0.08523967153051
N            2.23109045148797        0.15458474489450        0.03866418182581
C            2.44727594888394       -1.17640155096288        0.03241193837572
N            1.33680978994746       -1.88498763117576        0.00397419400731
C            0.34439102254174       -0.96914790279394       -0.00672821078712
C            0.86898873291434        0.31871393201405        0.01574576017233
C            0.04427977871621        1.48812623989115       -0.00445926233306
O            0.42520472669798        2.64544803828243       -0.00175467343663
N           -1.31036909178130        1.14964941542732       -0.03181630369803
C           -2.27638762854828        2.23801932504233       -0.05091348974972
C           -1.86509143736862       -0.12429463585326       -0.04899788158871
O           -3.06579480366751       -0.28120237323498       -0.07436563645341
N           -0.99507678569302       -1.19900657242611       -0.03684607006883
C           -1.51233119804473       -2.54893199878148       -0.05878945882199
H            3.70873126794364        1.21174150667995        1.06256103293010
H            3.97814642846230        1.02484425903834       -0.68167765465922
H            2.73442266014826        2.15438411519951       -0.08424451744057
H            3.42379555373774       -1.61401819445621        0.04686762861043
H           -1.72496257425783        3.17537285806262       -0.02643142676775
H           -2.88454496736126        2.17965463728541       -0.95337787038775
H           -2.93679975812678        2.16294050498644        0.81263471683294
H           -1.17455756866981       -3.08999508163260        0.82495252389773
H           -1.15269332807317       -3.07047789595932       -0.94575597624072
H           -2.59935890818423       -2.48918056466783       -0.07206263461133
H            2.64530588545825       -4.66169978478165       -0.01779668499073
25
 energy: 19.815081854020 xtb: 6.6.1 (8d0f1dd)
C            3.22191745007511        1.19546624908310        0.08504492906792
N            2.23284961904315        0.15338383453814        0.03877374593772
C            2.44658251068069       -1.17596874117537        0.03260517622139
N            1.33904685492830       -1.88624873367558        0.00424117450961
C            0.34489245297087       -0.97143584613612       -0.00669130500402
C            0.86887472802669        0.31598957177528        0.01549691034985
C            0.04463405555264        1.48728019411356       -0.00424026129866
O            0.42586218656237        2.64368349422569       -0.00139978375815
N           -1.30997208138149        1.14940394544711       -0.03172845181783
C           -2.27613930761832        2.23782707115525       -0.05087365442706
C           -1.86433028377445       -0.12498317889774       -0.04904414672565
O           -3.06504681655264       -0.28182431638289       -0.07450972494932
N           -0.99434668238252       -1.19911735351858       -0.03689407468891
C           -1.51279458396955       -2.54960080470918       -0.05888709782074
H            3.70859980512744        1.21212658990555        1.06235983957281
H            3.97798649264448        1.02528415685524       -0.68197130711655
H            2.73359489684305        2.15423747822845       -0.08446376672358
H            3.42461358046130       -1.61361445520062        0.04707100644478
H           -1.72469403101526        3.17522528020263       -0.02628607748548
H           -2.88424928617421        2.17961116051299       -0.95341132343694
H           -2.93666935183232        2.16282315874828        0.81262424111810
H           -1.17477158326763       -3.09018651341505        0.82486370460154
H           -1.15282108308769       -3.07063459344874       -0.94583927322053
H           -2.59956522310025       -2.48930856526793       -0.07220149474705
H            2.63816034917645       -4.65039048079147       -0.01760508845596
25
 energy: 19.809855424366 xtb: 6.6.1 (8d0f1dd)
C            3.22203093866058        1.19544405942250        0.08518909015349
N            2.23345017036387        0.15274534196635        0.03879778439234
C            2.44597984352468       -1.17621951985591        0.03252202427866
N            1.33873884846191       -1.88665299996515        0.00407860196143
C            0.34484510040200       -0.97152974321649       -0.00677261103627
C            0.86878680700546        0.31559421229621        0.01527939894598
C            0.04451058459888        1.48737068307229       -0.00443034441413
O            0.42603037801875        2.64351092222338       -0.00157443901230
N           -1.30984695629227        1.14948545919997       -0.03179186119512
C           -2.27622372998226        2.23780302731844       -0.05090145339332
C           -1.86434197734861       -0.12529577050586       -0.04899260961014
O           -3.06506872889429       -0.28161623491610       -0.07436957136577
N           -0.99444082977094       -1.19883693935551       -0.03691014189228
C           -1.51289154242232       -2.54973412161762       -0.05880690672564
H            3.70865198024073        1.21193066253043        1.06252186762481
H            3.97817856029217        1.02528049050956       -0.68174656169937
H            2.73353487932215        2.15405833369831       -0.08426016730887
H            3.42453135522100       -1.61350464173413        0.04698019814778
H           -1.72488235769392        3.17525760595922       -0.02641333040312
H           -2.88439026943610        2.17943970361123       -0.95337439684707
H           -2.93665345562878        2.16274508314102        0.81265075422769
H           -1.17463497480104       -3.09008091368192        0.82494055904662
H           -1.15280995052129       -3.07058079440250       -0.94575563044907
H           -2.59958340775444       -2.48940225434936       -0.07204862327124
H            2.63871340237026       -4.64818304917636       -0.01777773400781
