25
 energy: 0.000000000000 xtb: 6.6.1 (8d0f1dd)
C            3.23720132972391        1.16630909158653        0.08434468864950
N            2.29877796055224        0.07527476373246        0.03981602671198
C            2.58028186251803       -1.21425391179017        0.03006175752192
N            1.43813944744728       -1.93419254010258        0.00098261751768
C            0.39035684826767       -1.05887462812143       -0.00790371763344
C            0.93510047688824        0.21347817468824        0.01709077332874
C            0.09450143016486        1.40504290868848       -0.00410946993748
O            0.49712746915594        2.54126690785742       -0.00342325656480
N           -1.25076628431515        1.06271869620815       -0.03085477937476
C           -2.21907191394203        2.15522079838987       -0.05001256521996
C           -1.81739470187490       -0.20012724136556       -0.04692818139228
O           -2.99983858926755       -0.37846413507442       -0.07008877579474
N           -0.92618577614240       -1.30210203518959       -0.03682761236648
C           -1.46982251276835       -2.64643077634382       -0.06029819901142
H            3.71247229913541        1.21471443890471        1.06488839270555
H            4.00791460421487        1.03430799217987       -0.67357688121503
H            2.69909982127087        2.09770098766290       -0.09130154035862
H            3.56654087521359       -1.63682977417947        0.04233139674524
H           -1.67107945562430        3.09322822573871       -0.02552706696334
H           -2.82428927394145        2.09428605349656       -0.95318074103337
H           -2.87644002486466        2.07745706351925        0.81450059976605
H           -1.17061985538665       -3.19584861009707        0.83242224714061
H           -1.14560246782873       -3.17511580834413       -0.95688266944647
H           -2.55549768731684       -2.55659960601237       -0.07459039105944
H            1.38130842369251       -2.94313824728853       -0.01389874052104
25
 energy: 0.027828677540 xtb: 6.6.1 (8d0f1dd)
C            3.23021887097676        1.17673123765971        0.08574110985630
N            2.29096187350513        0.09319772665534        0.03787637083911
C            2.59469321528515       -1.23231009413133        0.03108117961601
N            1.46220279702229       -1.99727558727493        0.00093823399023
C            0.40347128562641       -1.09244928749457       -0.00855599631920
C            0.91618428885318        0.20792996944187        0.01508860511009
C            0.09187822927349        1.39777953598261       -0.00476587108964
O            0.49051198033665        2.56402119909454       -0.00309070830354
N           -1.27071768612982        1.06579641144570       -0.03122030133431
C           -2.23217921606886        2.16769397789768       -0.05005283190486
C           -1.82624583675270       -0.18848316624862       -0.04776981014951
O           -3.02392735751468       -0.36553800260228       -0.07141044591200
N           -0.93700611954667       -1.29985445858858       -0.03732123126521
C           -1.48744382166279       -2.62981725276713       -0.06010210959242
H            3.71337612615848        1.21783362575791        1.06583780018085
H            3.99832506422993        1.03547525419172       -0.67654390534213
H            2.70068285635876        2.11180051550601       -0.08831104755236
H            3.57360100506616       -1.63892952983381        0.04467551300856
H           -1.67848472029493        3.10459297365821       -0.02561261867881
H           -2.84125159207007        2.11815601559433       -0.95276323453324
H           -2.89356635067304        2.10145571199522        0.81378214961530
H           -1.17709204391979       -3.17401862435982        0.83253816025993
H           -1.15284873521668       -3.15374284547655       -0.95617912403241
H           -2.57225767739943       -2.53336018410416       -0.07390968046585
H            1.53912786952954       -3.06765633325506       -0.01291629380637
25
 energy: 16.016199143359 xtb: 6.6.1 (8d0f1dd)
C            3.22202336071168        1.18059087988199        0.08660820787161
N            2.27651896872643        0.10753739039305        0.03437863205630
C            2.59854895107996       -1.24318470204999        0.03311630044760
N            1.48327203226854       -2.06508927756586        0.00131274351221
C            0.41320399557473       -1.13397493361062       -0.00948473290718
C            0.88994570202110        0.19248338422302        0.01236997731537
C            0.08808756222809        1.37889093264797       -0.00529343959632
O            0.47873399137409        2.56145757361791       -0.00224328546330
N           -1.29813995594187        1.07678368911594       -0.03165530678873
C           -2.24867387225288        2.18887154985415       -0.05018376021207
C           -1.83393075744847       -0.16787668851730       -0.04862829490021
O           -3.03815928145142       -0.34976063378465       -0.07314859279496
N           -0.95217546202592       -1.28748763278184       -0.03779196154710
C           -1.51072046013706       -2.60592249967615       -0.05984520076931
H            3.71350386118121        1.21761353299338        1.06517325754084
H            3.98757581593198        1.03565416101330       -0.68026182389121
H            2.70438523113464        2.12324670704334       -0.08349538198993
H            3.57595836469943       -1.63045713541120        0.04795643247023
H           -1.68765703125138        3.12303069046602       -0.02568514478018
H           -2.86127304557423        2.14824589494669       -0.95228935678273
H           -2.91371597276955        2.13168816012829        0.81282194653180
H           -1.18944295467135       -3.14848452867274        0.83078387206265
H           -1.16643304737295       -3.12887448451853       -0.95365820069526
H           -2.59454763805711       -2.50957652986649       -0.07305971969663
H            1.77532594699475       -3.20637671112564       -0.01076325479890
25
 energy: 29.921069671170 xtb: 6.6.1 (8d0f1dd)
C            3.21715990427377        1.17934070715543        0.08648666757361
N            2.27162704532492        0.10656865711573        0.03230990045239
C            2.59739739233312       -1.24755785388719        0.03464834050407
N            1.49643473983953       -2.09580309133447        0.00178567742734
C            0.41866072683169       -1.15460340764829       -0.01024078428288
C            0.88125979459660        0.17974618086596        0.01118137429460
C            0.08582526584134        1.36884665520512       -0.00516763828183
O            0.47373901293373        2.55048349530579       -0.00141248184203
N           -1.31243093271745        1.08815606868925       -0.03197577584181
C           -2.25954750885513        2.20301765515472       -0.05043354204818
C           -1.83785254230952       -0.15734311665270       -0.04936584669759
O           -3.04085676288236       -0.34805191177144       -0.07460440426847
N           -0.95615582601012       -1.27727809284872       -0.03805600146765
C           -1.52477118872842       -2.59196497047612       -0.05956541853710
H            3.71083734908578        1.21580977554824        1.06390385959537
H            3.97999102695899        1.03773692086810       -0.68331266490633
H            2.70415816105086        2.12684500907163       -0.07950193984103
H            3.58121574132573       -1.62293314025194        0.05010877341043
H           -1.69787934991521        3.13647935300336       -0.02582932650935
H           -2.87445372761881        2.16606700150983       -0.95158509443624
H           -2.92692977557072        2.14951625918638        0.81149012796485
H           -1.20126606400960       -3.13378815470714        0.83059701863870
H           -1.17935693607427       -3.11479906779544       -0.95291069951437
H           -2.60846263824135       -2.49461782759322       -0.07220277971768
H            1.91387139750934       -3.28084431496887       -0.00931342947427
25
 energy: 36.556534887427 xtb: 6.6.1 (8d0f1dd)
C            3.21652747268154        1.17717520128046        0.08625922068582
N            2.27098176809934        0.10323300759686        0.03166995396315
C            2.59098122706424       -1.24830027445670        0.03582773094856
N            1.49603435274320       -2.10053045255876        0.00255948072783
C            0.41702002376681       -1.15574646548609       -0.01070594461817
C            0.88013074582134        0.17737392941132        0.01103063792627
C            0.08467463631706        1.36925252931942       -0.00490169786449
O            0.47232852243135        2.54732931016640       -0.00104088036393
N           -1.31668544233370        1.09514120623796       -0.03202752109173
C           -2.26326395839606        2.20823694741785       -0.05056961091504
C           -1.84140697361817       -0.15260158560363       -0.04960877001779
O           -3.04223959150811       -0.34796668942801       -0.07510659743157
N           -0.95790515771213       -1.26998671106219       -0.03816442609897
C           -1.52769906737338       -2.58718290916147       -0.05944432939284
H            3.70963926106423        1.21413647380696        1.06342845727262
H            3.97815598625728        1.03800827156933       -0.68448097814900
H            2.70382327220383        2.12585695314825       -0.07847071143057
H            3.57834443859585       -1.61958309839233        0.05040385268503
H           -1.70233060502362        3.14169629730260       -0.02595479705954
H           -2.87801583448991        2.17002626381585       -0.95181921287231
H           -2.93046495108893        2.15353941387774        0.81149417179043
H           -1.20327239487934       -3.12841369190558        0.83054354628675
H           -1.18187459537070       -3.10963741431119       -0.95267098536951
H           -2.61142202687134       -2.49253252689980       -0.07187424749935
H            1.97015319659178       -3.31949519694123       -0.00934242991710
25
 energy: 42.756722693148 xtb: 6.6.1 (8d0f1dd)
C            3.21449846045463        1.17378346415065        0.08577903933416
N            2.26356508978554        0.10298330146442        0.03118872862315
C            2.57332841517254       -1.24700532074671        0.03824906744009
N            1.49127644139692       -2.11073271118132        0.00568323332081
C            0.41099141898614       -1.15647274096470       -0.01133831669806
C            0.87222227529490        0.17830327024997        0.01097080074039
C            0.08204131792069        1.37242372408727       -0.00437048894689
O            0.46757350453755        2.54846495526724       -0.00110735067900
N           -1.32415905416239        1.10608852495123       -0.03194636441931
C           -2.26813634363537        2.21750407272499       -0.05064639062236
C           -1.84730923462074       -0.14304866846162       -0.04981392345313
O           -3.04667909841198       -0.34207816773310       -0.07535873317149
N           -0.96507100215643       -1.25760325056005       -0.03863710468651
C           -1.53242922712147       -2.57870097421044       -0.05945159756406
H            3.70760817229338        1.20984852630580        1.06255691961514
H            3.97510666692571        1.03385699279537       -0.68542263485759
H            2.70661754456614        2.12612119602529       -0.07825420413620
H            3.56429686595817       -1.61334986202704        0.05005882573698
H           -1.70659536938442        3.15026954962466       -0.02602150994269
H           -2.88226742814066        2.17740227148311       -0.95224020648264
H           -2.93471991320951        2.16103949474576        0.81180503152943
H           -1.20340160785145       -3.11890336426788        0.82940878202293
H           -1.18253066515084       -3.10052612424782       -0.95139629746954
H           -2.61618731864998       -2.49114458251570       -0.07172112339991
H            2.09257439417537       -3.40949478821536       -0.01094026963912
25
 energy: 37.473323673507 xtb: 6.6.1 (8d0f1dd)
C            3.21196070257557        1.16699863731976        0.08533413446493
N            2.24747101838254        0.10307216744569        0.03142600027075
C            2.53052908563363       -1.24265964967869        0.03948338941048
N            1.47113427423169       -2.11599834396805        0.00950140459520
C            0.39628334451677       -1.14550618245435       -0.01203179013187
C            0.85874976983976        0.18826276090298        0.01097790118615
C            0.07790618913410        1.38409757785056       -0.00380123368793
O            0.45817538893452        2.55492958725729       -0.00140391195502
N           -1.33228528773634        1.12401716873181       -0.03185698316040
C           -2.27359159068128        2.23044337301001       -0.05082828149321
C           -1.85463302738608       -0.12918559991770       -0.04979698225918
O           -3.05228557149349       -0.33126424437726       -0.07554390533984
N           -0.97763774127786       -1.23565929808922       -0.03880943503801
C           -1.53784919631929       -2.56556975861172       -0.05926243441420
H            3.70491562953041        1.20269399705337        1.06123563191660
H            3.97125130641780        1.02617267474187       -0.68611483630760
H            2.71297074827383        2.12607959344988       -0.07797146025169
H            3.52851571450443       -1.60800013481456        0.04929181077610
H           -1.71109144949249        3.16177532705169       -0.02621325019558
H           -2.88622607620935        2.18588746110017       -0.95291835513077
H           -2.93868450383855        2.16970265830074        0.81218968209206
H           -1.20231482017500       -3.10607643100171        0.82693368705664
H           -1.18194257434571       -3.08804655210999       -0.94841881300514
H           -2.62168621558950       -2.48948946148335       -0.07148845296379
H            2.31257918754236       -3.57764853896524       -0.01287960424010
25
 energy: 32.571549958118 xtb: 6.6.1 (8d0f1dd)
C            3.20909526259552        1.15967619543157        0.08522781417097
N            2.23222735010643        0.10045674211442        0.03300100819589
C            2.48427491382736       -1.24005440949296        0.03799589584816
N            1.44532880254731       -2.10763580432034        0.00882878328134
C            0.38078946867610       -1.12634279902916       -0.00998271131311
C            0.84885018216585        0.20200866387112        0.01099692891324
C            0.07086557131402        1.40136486201313       -0.00482677167673
O            0.44719785234045        2.56337147520390       -0.00102014613651
N           -1.33364541740339        1.13904362005785       -0.03213189187786
C           -2.27658023024263        2.24052911186290       -0.05100212797100
C           -1.85931089723913       -0.12069855158789       -0.04973101716429
O           -3.05629132946925       -0.31879741581776       -0.07579071167313
N           -0.98656866849276       -1.21866669122925       -0.03740526304691
C           -1.54025331811676       -2.55571187875816       -0.05878358840256
H            3.70175921979367        1.19468362340307        1.06023800839683
H            3.96728037226742        1.01661889999618       -0.68589878949132
H            2.71917775083236        2.12476227591089       -0.07842246178954
H            3.48642319013685       -1.60998179282898        0.04926753574141
H           -1.71666903156593        3.17280214041181       -0.02654794273426
H           -2.88862580969538        2.19184506190235       -0.95301674866551
H           -2.94102932521500        2.17581669359636        0.81196438501893
H           -1.19865916388922       -3.09505813582082        0.82504929915939
H           -1.17820176301479       -3.07670496507688       -0.94566146803116
H           -2.62445198189252       -2.48854472832899       -0.07133381939536
H            2.51923130460588       -3.73575340474029       -0.01398028716236
25
 energy: 23.201040876770 xtb: 6.6.1 (8d0f1dd)
C            3.21074934855613        1.15621016107606        0.08477985514437
N            2.22822473750211        0.09227329551084        0.03770618974144
C            2.43046566806853       -1.23559947795673        0.03223312047575
N            1.37502872974567       -2.02492839229533        0.00454216463747
C            0.35260783470390       -1.05907673434261       -0.00687626215199
C            0.85676864315768        0.23886574824870        0.01205125781736
C            0.06083492915026        1.43572942854870       -0.00577475535369
O            0.44263716997425        2.58325298511729       -0.00066053842586
N           -1.31352919368043        1.13870462183381       -0.03215497184708
C           -2.26942646001839        2.23481669451387       -0.05090256721176
C           -1.85970824692544       -0.13157048707397       -0.04944321410099
O           -3.05811493553324       -0.30478755084050       -0.07536331756800
N           -0.99188506994157       -1.21321412426025       -0.03594402937877
C           -1.53327125767624       -2.55861626137107       -0.05872959848456
H            3.70048426211049        1.19127443408867        1.05979941947553
H            3.96900045541885        1.01077439007291       -0.68419522896412
H            2.71977156563554        2.11938630633340       -0.08117903333130
H            3.43799807277361       -1.62871768548589        0.04944558038223
H           -1.71699606856901        3.17149253592685       -0.02648576108960
H           -2.88263250088348        2.18553765401257       -0.95189708924483
H           -2.93495304125593        2.16917817776585        0.81094600733579
H           -1.19230021266039       -3.09565647647541        0.82487171609133
H           -1.17107566991046       -3.07648854636642       -0.94558213415859
H           -2.61789899487551       -2.49050915048606       -0.07164010684321
H            2.66943454010544       -3.91930275735128       -0.01251279075238
25
 energy: 20.531586215714 xtb: 6.6.1 (8d0f1dd)
C            3.21363067127536        1.16221334832459        0.08388936661908
N            2.23336310768316        0.09361873688334        0.04012942326238
C            2.40596615948379       -1.23290998488037        0.03047293549041
N            1.30343133041191       -1.95179262754305        0.00241732100337
C            0.33207389749560       -1.00011991348441       -0.00652168385819
C            0.86822507424343        0.27452068009171        0.01359346390415
C            0.04846341547413        1.46477984625306       -0.00461095295171
O            0.43929570802787        2.60867655251585       -0.00023095944438
N           -1.30186215424381        1.14033365263952       -0.03177368516062
C           -2.26844945869921        2.23335749965308       -0.05080634606671
C           -1.86467793515973       -0.13761323556412       -0.04951372150054
O           -3.06495831880350       -0.28467604632068       -0.07514875893070
N           -1.00138737416940       -1.20815049084099       -0.03694877986768
C           -1.52752678882708       -2.55878812456564       -0.05910051417827
H            3.70086558704714        1.19336108580410        1.05992773109841
H            3.97197925372514        1.01094817552266       -0.68339958810508
H            2.71913139371618        2.12121997157145       -0.08374899003068
H            3.41218011791552       -1.64056415894964        0.04838812763386
H           -1.71994792464894        3.17277200991331       -0.02620430833028
H           -2.88017599994550        2.18030777622368       -0.95216095810695
H           -2.93247047486389        2.16352583407783        0.81141065667256
H           -1.18545742344881       -3.09412771391515        0.82458728688692
H           -1.16409709607455       -3.07473248156525       -0.94588839068306
H           -2.61254672900108       -2.49171732973728       -0.07196401747615
H            2.78716626635877       -4.15541427336356       -0.00976074568555
25
 energy: 20.797707312945 xtb: 6.6.1 (8d0f1dd)
C            3.21547317311246        1.16913060047221        0.08414561541907
N            2.23491734120822        0.10367917339767        0.04047107476586
C            2.40335070615272       -1.23055151310130        0.03050610835852
N            1.26586504002144       -1.91667935367358        0.00123673600792
C            0.32480629634532       -0.96580268624300       -0.00679068168886
C            0.87364115742289        0.30309744228109        0.01485034948931
C            0.04029859038117        1.48494035623975       -0.00435369534549
O            0.43419515348127        2.63305627015436       -0.00089618030160
N           -1.30187405825799        1.14694447350568       -0.03170945202981
C           -2.27278822964883        2.23655119832336       -0.05085701005990
C           -1.87112047487042       -0.13403935242930       -0.04920080529798
O           -3.07208897388262       -0.26987326589783       -0.07454106343668
N           -1.00882634198251       -1.19978193734941       -0.03758507168866
C           -1.52045296669647       -2.55417902753450       -0.05901798535977
H            3.70239337885881        1.19760627108191        1.06077528564420
H            3.97452571818397        1.01330488404263       -0.68215112809108
H            2.72038645536755        2.12624069120849       -0.08462294335120
H            3.40026042661623       -1.64505260200728        0.04661406505602
H           -1.72377287217188        3.17535689877580       -0.02639095393820
H           -2.88158518546800        2.17767660772998       -0.95300776992256
H           -2.93378746591985        2.16102784717484        0.81237633917795
H           -1.17770691638464       -3.09065776512031        0.82443696970883
H           -1.15604887685092       -3.07131075784630       -0.94540270201259
H           -2.60607522682071       -2.49335269705393       -0.07210108393869
H            2.84822845677526       -4.36830296738700       -0.00975010497004
25
 energy: 20.787345929126 xtb: 6.6.1 (8d0f1dd)
C            3.21574469369857        1.17511929442143        0.08436070175116
N            2.23206949584683        0.11685999435960        0.03986207807517
C            2.41206595620880       -1.22145614197106        0.03090010147313
N            1.26577981992174       -1.90294684909050        0.00141773736314
C            0.32631951440723       -0.95388014577237       -0.00689894767851
C            0.87383489244198        0.31805080345170        0.01586070696657
C            0.03785023808127        1.49252421385278       -0.00412421069261
O            0.42992452720893        2.64503449085653       -0.00138252838432
N           -1.30489258485591        1.15025395394972       -0.03170446695555
C           -2.27497141920714        2.23891578020682       -0.05085506600939
C           -1.87402890736442       -0.13010863840698       -0.04914173011141
O           -3.07497546583330       -0.26658589271976       -0.07435264384557
N           -1.01013411060918       -1.19580564513623       -0.03767252091959
C           -1.51642926436894       -2.55029743744108       -0.05896939667573
H            3.70362944930890        1.20120833358014        1.06107733014800
H            3.97536496577829        1.01569959687560       -0.68150845358545
H            2.72275417510118        2.13268422103279       -0.08495243803004
H            3.40051808675740       -1.63833861807807        0.04612040377612
H           -1.72431303310957        3.17639612502178       -0.02629543014829
H           -2.88239291411002        2.17846480121082       -0.95326861099755
H           -2.93471066028563        2.16168986618280        0.81261212969122
H           -1.17503932443003       -3.08858976080533        0.82458281967577
H           -1.15304344144933       -3.06922940643129       -0.94543147899930
H           -2.60273405273147       -2.49244454899891       -0.07228939808972
H            2.84402366856623       -4.50418960140689       -0.01091277560263
25
 energy: 20.372842406230 xtb: 6.6.1 (8d0f1dd)
C            3.21761916250573        1.18320734834741        0.08488100894226
N            2.22848206446437        0.13592416894077        0.03914380426086
C            2.42837681759654       -1.20280322854488        0.03147163812134
N            1.28863113465841       -1.89146755399235        0.00219656753434
C            0.33270209491256       -0.95262307857551       -0.00685848934020
C            0.87189085439385        0.32657587404309        0.01653084777549
C            0.03885323361764        1.49438672420722       -0.00433660793717
O            0.42624296330814        2.65114290386385       -0.00190567379860
N           -1.30839821539224        1.15145608080246       -0.03182325482987
C           -2.27636114348878        2.23973008156810       -0.05089740985104
C           -1.87318160117441       -0.12607470486885       -0.04904616209568
O           -3.07399892200256       -0.26962566730132       -0.07421158738575
N           -1.00650751679549       -1.19518947546205       -0.03736227711983
C           -1.51330814271389       -2.54774724394699       -0.05883026534893
H            3.70622438748243        1.20532903882026        1.06176315520065
H            3.97688146810923        1.01864702431407       -0.68107566092893
H            2.72849884486571        2.14226941701357       -0.08477406851927
H            3.40811680356437       -1.62609901462063        0.04604798645264
H           -1.72499762797612        3.17665797328381       -0.02640988966175
H           -2.88354427618949        2.17931066693770       -0.95329837446210
H           -2.93578985575782        2.16255135723667        0.81262383047902
H           -1.17391369886299       -3.08815420320977        0.82480273285342
H           -1.15184932101822       -3.06873452410841       -0.94549651429839
H           -2.60044303487421       -2.49112655470439       -0.07222823192005
H            2.78198783173976       -4.61851462129978       -0.01387319192791
25
 energy: 19.974680655597 xtb: 6.6.1 (8d0f1dd)
C            3.22015857451729        1.19141065422484        0.08504808887522
N            2.22829214826412        0.15138325940275        0.03865973173254
C            2.44334186067491       -1.18350753147819        0.03218801652503
N            1.32132104832548       -1.88502469897877        0.00355339564626
C            0.34074521018650       -0.96153439940198       -0.00669239762121
C            0.86965347406839        0.32460149719357        0.01647373404566
C            0.04222430606035        1.49110793308192       -0.00425266857829
O            0.42467178428087        2.64947195868713       -0.00176313323106
N           -1.31039597824410        1.15058496401184       -0.03179151010591
C           -2.27654262717662        2.23896228915351       -0.05088993813083
C           -1.86847104455143       -0.12398465808915       -0.04907013152989
O           -3.06919868297461       -0.27695962822649       -0.07441977327562
N           -0.99928508796055       -1.19747615773803       -0.03698382055062
C           -1.51198423926658       -2.54771282541889       -0.05884925615015
H            3.70809285100187        1.20995045529244        1.06220879361683
H            3.97773639592341        1.02274980088749       -0.68156912102817
H            2.73312761771836        2.15118924592326       -0.08462123608030
H            3.41885854640170       -1.61655412008178        0.04658909213752
H           -1.72490333847495        3.17594978771467       -0.02630079339750
H           -2.88422018623157        2.17999446431863       -0.95337359769403
H           -2.93661728610188        2.16314032895353        0.81257770356836
H           -1.17415743183564       -3.08913358436915        0.82489694674058
H           -1.15207316674803       -3.06960871222297       -0.94575779946967
H           -2.59933772781326       -2.48956151878494       -0.07226289508898
H            2.69117728492837       -4.67041001531121       -0.01656351876121
25
 energy: 19.845046274058 xtb: 6.6.1 (8d0f1dd)
C            3.22174017186933        1.19489310123531        0.08523966362222
N            2.23109024449397        0.15458473055258        0.03866417823866
C            2.44727572183289       -1.17640144181981        0.03241193536864
N            1.33680966592219       -1.88498745629216        0.00397419363860
C            0.34439099059016       -0.96914781287925       -0.00672821016290
C            0.86898865229212        0.31871390244471        0.01574575871148
C            0.04427977460806        1.48812610182718       -0.00445926191934
O            0.42520468724874        2.64544779284555       -0.00175467327384
N           -1.31036897020912        1.14964930876623       -0.03181630074621
C           -2.27638741735174        2.23801911740549       -0.05091348502612
C           -1.86509126433093       -0.12429462432157       -0.04899787704283
O           -3.06579451923210       -0.28120234714585       -0.07436562955399
N           -0.99507669337273       -1.19900646118581       -0.03684606665036
C           -1.51233105773510       -2.54893176229908       -0.05878945336768
H            3.70873092385848        1.21174139425814        1.06256093434882
H            3.97814605938159        1.02484416395631       -0.68167759141518
H            2.73442240645658        2.15438391532210       -0.08424450962461
H            3.42379523608807       -1.61401804471236        0.04686762426219
H           -1.72496241422088        3.17537256346088       -0.02643142431552
H           -2.88454469974167        2.17965443506347       -0.95337778193616
H           -2.93679948565915        2.16294030431519        0.81263464143908
H           -1.17455745969782       -3.08999479495196        0.82495244736106
H           -1.15269322112968       -3.07047761108942       -0.94575588849627
H           -2.59935866702337       -2.48918033372899       -0.07206262792557
H            2.64530564003456       -4.66169935228287       -0.01779668333961
25
 energy: 19.815057529256 xtb: 6.6.1 (8d0f1dd)
C            3.22191715115510        1.19546613817126        0.08504492117770
N            2.23284941188594        0.15338382030764        0.03877374234041
C            2.44658228369397       -1.17596863207245        0.03260517319638
N            1.33904673069548       -1.88624855867498        0.00424117411613
C            0.34489242097276       -0.97143575600916       -0.00669130438322
C            0.86887464741505        0.31598954245870        0.01549690891209
C            0.04463405141162        1.48728005612808       -0.00424026090526
O            0.42586214705213        2.64368324895252       -0.00139978362828
N           -1.30997195984614        1.14940383880880       -0.03172844887416
C           -2.27613909644482        2.23782686353625       -0.05087364970715
C           -1.86433011080738       -0.12498316730217       -0.04904414217548
O           -3.06504653218662       -0.28182429023606       -0.07450971803653
N           -0.99434659012996       -1.19911724226800       -0.03689407126599
C           -1.51279444361692       -2.54960056816473       -0.05888709235737
H            3.70859946105447        1.21212647744802        1.06235974101019
H            3.97798612357861        1.02528406173240       -0.68197124384526
H            2.73359464322817        2.15423727836464       -0.08446375888728
H            3.42461326273574       -1.61361430549422        0.04707100207767
H           -1.72469387100323        3.17522498561458       -0.02628607504674
H           -2.88424901858206        2.17961095829509       -0.95341123498225
H           -2.93666907937679        2.16282295808792        0.81262416572522
H           -1.17477147427578       -3.09018622671665        0.82486362807312
H           -1.15282097613235       -3.07063430856431       -0.94583918546835
H           -2.59956498192025       -2.48930833431721       -0.07220148804841
H            2.63816010441570       -4.65039004934194       -0.01760508682261
25
 energy: 19.809831137599 xtb: 6.6.1 (8d0f1dd)
C            3.22203063973004        1.19544394851272        0.08518908224990
N            2.23344996315094        0.15274532779509        0.03879778079280
C            2.44597961659387       -1.17621941072973        0.03252202126136
N            1.33873872425766       -1.88665282492704        0.00407860158303
C            0.34484506840829       -0.97152965308082       -0.00677261040793
C            0.86878672640198        0.31559418301631        0.01527939752840
C            0.04451058046932        1.48737054507842       -0.00443034400310
O            0.42603033849291        2.64351067696622       -0.00157443886623
N           -1.30984683476853        1.14948535255409       -0.03179185824556
C           -2.27622351880093        2.23780281970167       -0.05090144867083
C           -1.86434180438045       -0.12529575888129       -0.04899260506475
O           -3.06506844452624       -0.28161620878858       -0.07436956446598
N           -0.99444073750965       -1.19883682813095       -0.03691013846787
C           -1.51289140206070       -2.54973388506080       -0.05880690126971
H            3.70865163616292        1.21193055009107        1.06252176904716
H            3.97817819120848        1.02528039538706       -0.68174649844893
H            2.73353462571284        2.15405813385112       -0.08426015949146
H            3.42453103750307       -1.61350449203792        0.04698019378910
H           -1.72488219766442        3.17525731136817       -0.02641332795257
H           -2.88439000183087        2.17943950140923       -0.95337430839580
H           -2.93665318317472        2.16274488248790        0.81265067883235
H           -1.17463486582187       -3.09008062699331        0.82494048251106
H           -1.15280984356698       -3.07058050952306       -0.94575554270465
H           -2.59958316657275       -2.48940202338995       -0.07204861658678
H            2.63871315755820       -4.64818261793163       -0.01777773235844
