25
 energy: -42.178334181298 gnorm: 0.007989784138 xtb: 6.6.1 (8d0f1dd)
C            3.76730243217116        0.58799225536984        0.12262764460177
N            2.69267136297004       -0.18919277593579        0.04143308432539
C            2.69489753144649       -1.54187239450980       -0.01753571065732
N            1.40664878204496       -2.01600472700334       -0.05962076192231
C            0.57201798569233       -0.96843216789581       -0.03400180849404
C            1.34727264942390        0.20919899011352        0.01297341547139
C            0.66659060318218        1.43946868493843       -0.01308594685538
O            1.18509255979103        2.64942341502460       -0.06022882732913
N           -0.67574813597861        1.40172681960570        0.00021195760261
C           -3.39034553899768        1.52553158704176        0.07827763865462
C           -1.36479437837304        0.30237862207088       -0.00392239955458
O           -2.67364468830873        0.29498583185235        0.01731463207975
N           -0.79073115848206       -0.95685824281330       -0.04549953953501
C           -1.55436721752973       -2.18678632070083       -0.09262663721012
H            3.68359033073679        1.64560958922642        0.25345827075046
H            4.73234200213029        0.12462355806681        0.14279493551073
H            2.14525718980144        2.66948889618779       -0.15901073439450
H            3.56806315493227       -2.15515527448357       -0.01757313098502
H           -2.72410515118115        2.38044054716148        0.01882144999790
H           -4.08707678578197        1.53245513387110       -0.75604186296890
H           -3.93940574596121        1.54529608750996        1.01813158516186
H           -1.29353687856950       -2.82382305249402        0.75391100290577
H           -1.35878756315690       -2.71781714979540       -1.02596644427637
H           -2.61138076765868       -1.94208495668320       -0.03914684507918
H            1.16260893975618       -2.99235441412591       -0.10452334990091
