25
 energy: -42.512384785530 xtb: 6.6.1 (8d0f1dd)
C            3.30970462782852        2.07786146183972        0.14097694180734
N            2.41946071690518       -0.24794240877326        0.03743977967839
C            2.56718138518434       -1.53912862980225        0.05810635390388
N            1.38249424341450       -2.24323195564175        0.02138768532523
C            0.39906563468385       -1.29538796967254       -0.01685242975639
C            1.05307096199397       -0.05740498644700       -0.00747514759409
C            0.25395097158826        1.14969595804082       -0.05670822013986
O            0.61572514035027        2.29401542689817       -0.13789844629777
N           -1.12974953960009        0.90191282272784       -0.04707744597927
C           -1.99934854699731        2.07984754147272       -0.03800517466104
C           -1.76296128566887       -0.30612208519643       -0.06363234662603
O           -2.97281264126268       -0.36544016937597       -0.08163169378383
N           -0.96154074693817       -1.45740553328207       -0.05758411243616
C           -1.71013005360423       -2.69811958526217       -0.07681870200966
H            3.75803685754636        2.21084149855108        1.06864988802707
H            3.85848168198491        2.06726327764209       -0.74860167888341
H            2.30435206495655        2.39330956391475        0.09488091962275
H            3.50121520185500       -2.07401348287610        0.04974825459352
H           -1.36251377568066        2.95494602169841       -0.02454518160802
H           -2.62220348784745        2.10837405763792       -0.92878775614661
H           -2.61306287126476        2.08695711948010        0.85713416246788
H           -1.53977278045163       -3.29981228231491        0.81577883835501
H           -1.51223156423323       -3.28560425210096       -0.97280293388191
H           -2.76701283585559       -2.39687985490455       -0.09148745039534
H            1.27839097748037       -3.24833182156361        0.03246791421108
