  25
        -42.13790970
 C          3.3646261378        0.6044902530        0.0528949149
 N          2.2491244293       -0.3007788682        0.0155359418
 C          2.3039683555       -1.6361626559       -0.0061079420
 N          1.0455182822       -2.1468178122       -0.0171165134
 C          0.1671433229       -1.1034146643        0.0011495263
 C          0.9205040687        0.0669253102        0.0208238446
 C          0.3211211887        1.3640235757        0.0104025841
 O          0.8827717603        2.4396770440        0.0006675270
 N         -1.1149211834        1.2792081779        0.0099283145
 C         -1.7909465872        2.4395744531       -0.0405969363
 C         -1.8831511118        0.0849941738        0.0424516680
 O         -3.0842662513        0.1177706930        0.0917973296
 N         -1.1831804384       -1.1212220173        0.0054491162
 C         -1.9321199908       -2.3629460243       -0.0135056382
 H          3.8492648558        0.5713607721        1.0305869964
 H          4.0949435969        0.3361610688       -0.7098929777
 H          3.0021331268        1.6167892042       -0.1234152884
 H          3.2001489525       -2.2221749224       -0.0143654282
 H         -1.2213734766        3.3511894986       -0.0532705564
 H         -0.9118987246        2.7492700457       -2.5593071284
 H         -2.8628927309        2.4148982265        0.0546119916
 H         -1.6693794501       -2.9808537768        0.8455838150
 H         -1.7429273230       -2.9070651915       -0.9393378508
 H         -2.9907717854       -2.1126849753        0.0398477107
 H          0.8192402099       -3.1302556405       -0.0349760427
