25
 energy: -42.156496864568 gnorm: 0.007959609883 xtb: 6.6.1 (8d0f1dd)
C            3.26109979225063        1.02785631858023        0.05896476775092
N            2.30629491025987       -0.04720642299163        0.03125175170258
C            2.56633942153442       -1.34190615590037        0.01334444885597
N            1.41278022082559       -2.04836162034496       -0.01093721501968
C            0.38355078036770       -1.15454702091181       -0.01125135814654
C            0.94482404538873        0.11868396435875        0.02076651055336
C            0.16416304972361        1.31036887761000        0.04276877041128
O           -1.45672624940814        3.32123002963508       -0.45498805792088
N           -1.13840619352413        1.02923290864034        0.00728976281896
C           -2.07939434754080        2.18611194571521       -0.03234820330719
C           -1.78070926601163       -0.21827903900522       -0.01144986550135
O           -2.97382432565916       -0.32859975179347       -0.00985756187945
N           -0.94118683584358       -1.35108068216820       -0.02579887125282
C           -1.53628616082820       -2.67337477794883       -0.04680977612971
H            3.72766187556056        1.09510451662648        1.04248724200976
H            4.03580854408829        0.86670263639556       -0.68970720659820
H            2.73315554174781        1.95794641743723       -0.14859537497160
H            3.54628457960621       -1.77846937735739        0.01517216863369
H           -0.85673601887635        3.68268271003371        0.21689294293646
H           -2.86338237468413        1.94458928597120       -0.75544434896565
H           -2.53439610495752        2.26931965501763        0.96655717478770
H           -1.25378908468953       -3.23293597201421        0.84555266855157
H           -1.23146128323488       -3.21529817414346       -0.94262585208964
H           -2.61807001006274       -2.54491058072025       -0.05865215138639
H            1.34283700806736       -3.05662114912169       -0.03141074794316
