25
 energy: 128.695202953098 xtb: 6.6.1 (8d0f1dd)
C            3.42671694052654        1.30083552921201        0.12482829580682
N            2.49849599947083        0.20421686774794        0.07636800673235
C            2.77827376250752       -1.10063505470182        0.11781759631732
N            1.64558580834131       -1.81205691657401        0.04495935298589
C            0.58394500707275       -0.94370491179862       -0.02514975256823
C            1.12265095848518        0.35355519964837       -0.00784013801636
C            0.30162762975901        1.51334956545418       -0.05134251493989
O            0.68683831549463        2.68663152132814       -0.05295904509188
N           -1.06246038872916        1.13643497214151       -0.08420010064706
C           -2.02976698579068        2.23497965094512       -0.10388860992274
C           -1.60731126209511       -0.08875833901033       -0.09723457225423
O           -4.04348824896357       -3.10183741530807       -0.04585077847271
N           -0.74841919686635       -1.19624774887375       -0.09040064461953
C           -1.21644148277788       -2.45409205235319       -0.16935342178970
H            3.92696943641665        1.33512546081582        1.09228175871313
H            4.17995017726049        1.19512474217048       -0.65624109337574
H            2.87397985739775        2.23221764780516       -0.01871995436920
H            3.76473135897777       -1.51678622040657        0.17719922566895
H           -1.47677231299630        3.17151785031841       -0.04240066180924
H           -2.61957734456783        2.20821871034478       -1.02685872298870
H           -2.72001185649068        2.14900730022553        0.73945277165330
H           -0.51564433817889       -3.29526749767962       -0.14515595147637
H           -2.26675866903041       -2.64010613982929       -0.09321593543973
H           -4.95798613905227       -2.87524226719625        0.12980578840482
H            1.59665279246463       -2.82326879832009        0.06215744905873
