25
 energy: 15.828460359535 xtb: 6.6.1 (8d0f1dd)
C            3.27835082018498        1.21597440009996        0.09997504623368
N            2.33901850862801        0.13671289185364        0.03633534513810
C            2.67079605845576       -1.20809626995098        0.06745804084880
N            1.49697864313400       -1.91785934395216        0.03686607508545
C            0.42359264866102       -1.10027673656130       -0.00958870754118
C            0.93619501181860        0.21008586743970       -0.01172871647505
C            0.08538466378006        1.31646803604301       -0.05924919040373
O            0.40165639235840        2.51082481532330       -0.07128292063322
N           -1.35137391532021        0.92745284859927       -0.06414674939815
C           -2.19812172278396        2.11341552026979       -0.08435044871229
C           -1.89614822687832       -0.35337678034018       -0.07923579858329
O           -3.04973018800339       -0.76678631016905       -0.13251476148914
N           -0.94609278390520       -1.38914671408937       -0.00608830891933
C           -1.67367451785483       -2.67643577163853       -0.01994032676354
H            3.77709657374907        1.25874292798261        1.07693100319754
H            4.05220099736388        1.09681468858453       -0.66652723427317
H            2.75057638153404        2.15486231860549       -0.05962664620107
H            3.65343000652617       -1.62423503567002        0.11231772846777
H           -1.56402431607477        3.00613271519677       -0.03280436802156
H           -2.77238443984663        2.15705992968733       -1.00666347628579
H           -2.85613042919024        2.12477419653342        0.77988073253091
H           -1.01090942567539       -3.38147854266220        0.49014660181313
H           -1.70321751191524       -3.02730819552065       -1.05642054546505
H           -2.78849929195892       -2.65110723669433        0.38959142742952
H            1.47342559769095       -2.91913153468773        0.04687801061391
