25
 energy: 142.848287158112 xtb: 6.6.1 (8d0f1dd)
C            3.36745918159991        1.29481050656296        0.10910383715169
N            2.43693983847186        0.18117441932104        0.09637187467999
C            2.74817477344919       -1.13195000248600        0.15562860610022
N            1.61554613405703       -1.86139242092185        0.12111721508372
C            0.52584674521673       -1.02680634581385        0.04067898419390
C            1.04182321038702        0.28320491321523        0.01212810397713
C            0.16108984625096        1.38685790345138       -0.03162333432426
O            0.51347715385474        2.57282754629194       -0.05984415227472
N           -1.22639027474616        0.97071217845972       -0.06017197705881
C           -2.10644873001965        2.13785699698823       -0.13128325341482
C           -1.76069276714378       -0.27512950665711       -0.08506220689646
O           -3.74038884325706       -2.25416835016064        0.08320443697697
N           -0.80306470534977       -1.31116230311824       -0.10545682153864
C           -1.34402276183704       -2.49413129936778       -0.40361903215500
H            3.92701733686587        1.30724065334963        1.04720798762012
H            4.09708965430737        1.22210833895208       -0.70254435087421
H            2.83907696125067        2.24540240735265        0.00828405536708
H            3.75172758105019       -1.50884793921056        0.23774980515240
H           -1.47203401813629        3.02292301163232       -0.09434493490668
H           -2.63875073798446        2.14414933925764       -1.09046586227753
H           -2.82352981845076        2.14314976625700        0.68308591942045
H           -0.74208312444262       -3.33438349312140       -0.61799598927962
H           -2.46939499732272       -2.35738057509707       -0.50142273743088
H           -4.46172423322393       -2.95699135498173        0.29521029808044
H            1.61786535269990       -2.87108645013522        0.19424475302797
