  25
        -42.18826399
 C          3.2378388787        1.1236465246       -0.0033523142
 N          2.2610705934        0.0680226875        0.0076112131
 C          2.5328992778       -1.2513282073        0.0171643721
 N          1.3762074590       -1.9535553321        0.0230417376
 C          0.3430795299       -1.0712244697        0.0173203303
 C          0.8900150416        0.2179537478        0.0072057055
 C          0.0481685682        1.3242715384       -0.0039024630
 O          0.5070065017        2.5881515046       -0.0732943443
 N         -1.3102227900        1.0950122334        0.0339743210
 C         -2.1943313597        2.1062916882        0.0753774733
 C         -1.8787535824       -0.2275813272       -0.0082457714
 O         -3.0699627005       -0.3753107262       -0.0314707197
 N         -0.9962587565       -1.2908195055       -0.0085954587
 C         -1.5283723158       -2.6409851772       -0.0194844042
 H          3.8461751584        1.0860899043        0.9013371326
 H          3.8924392207        1.0247600363       -0.8700002207
 H          2.7241184734        2.0802909917       -0.0478410338
 H          3.5136861290       -1.6769359850        0.0177894756
 H         -0.2289258607        3.1780610132       -0.3055883794
 H         -3.2272186279        1.8678098149       -0.0410246698
 H         -1.8972074115        3.1114407390        0.2920181264
 H         -1.1937882111       -3.1861675794        0.8633344527
 H         -1.2164173841       -3.1630484793       -0.9243428090
 H         -2.6147005107       -2.5722430413       -0.0058698915
 H          1.3064933608       -2.9599093741        0.0264137816
