25
 energy: -42.188818365429 gnorm: 0.005414010795 xtb: 6.6.1 (8d0f1dd)
C            3.10625850167599        1.21672715708377        0.08462644052071
N            2.17345466186545        0.12220992030118        0.06734388578524
C            2.49670397619207       -1.18541506673075        0.07287996968533
N            1.36859755352141       -1.93181011973766        0.03780121599621
C            0.30254277251706       -1.09001706767219        0.00856410639958
C            0.79828885745221        0.21924483204198        0.02790898452961
C           -0.08334568453368        1.29495966798804        0.00862482125500
O            0.34295542314345        2.57404053494345       -0.02491231619643
N           -1.43557664454122        1.00918812385306        0.01482508356293
C           -2.37084289779052        1.97333957808722        0.08198129020289
C           -1.94763819909549       -0.33338365681529       -0.08376263080334
O           -3.12975701732508       -0.52716980675822       -0.16019515164391
N           -1.02476431497730       -1.36212637138427       -0.06676385213884
C           -1.50345736028531       -2.73208335566930       -0.10296399530127
H            3.77638614725829        1.12770954662203        0.93987462247584
H            3.70285800143492        1.22320626128355       -0.82885211368200
H            2.55363339418010        2.14990573573452        0.15612083519530
H            3.49281631648649       -1.57323370054079        0.09762017957646
H           -0.36061571013133        3.14914719083682       -0.36916786444214
H           -3.39324225113248        1.67911847931516       -0.03425508376287
H           -2.13352499944768        2.96534963124786        0.40955877591655
H           -1.20560738732853       -3.26113624107134        0.80274653515200
H           -1.11477272963574       -3.24498628375319       -0.98285399113080
H           -2.59034247020244       -2.70437739953165       -0.15812059364298
H            1.33942357479944       -2.94016904807396        0.03254246439093
