  25
        -42.03287825
 C          3.7053955279        0.7810530426        0.0024371635
 N          2.5729283359       -0.0958046138       -0.0658355081
 C          2.5767081680       -1.4078332189       -0.2818871653
 N          1.3135267504       -1.8717967720       -0.2543167368
 C          0.4307270119       -0.8503377089       -0.0249014018
 C          1.2369397114        0.3341290181        0.1184768739
 C          0.9258622907        1.5934976984        0.4508078301
 O          0.6485989091        2.6974746652        0.7070104459
 N         -2.6402582423        0.5144360047       -0.7616161865
 C         -3.0476192435        1.8931986837       -0.7663213826
 C         -1.7775621099        0.0167035695        0.2273145461
 O         -3.1144260302       -0.2605856524        0.3708282039
 N         -0.8946067420       -1.0453894541        0.0650733413
 C         -1.3824473651       -2.4125632464        0.2251069751
 H          3.8976690170        1.0809258632        1.0345502737
 H          4.5841269145        0.2752965046       -0.3889403422
 H          3.5158146505        1.6786334070       -0.5864352298
 H          3.4481343136       -2.0054222617       -0.4584513331
 H         -2.3004710644        2.4551327375       -1.3234659228
 H         -4.0035691656        1.9503673401       -1.2840024158
 H         -3.1555974027        2.3051896624        0.2393635607
 H         -0.8658734040       -2.9243177685        1.0372249698
 H         -1.2663668250       -2.9601684504       -0.7114143711
 H         -2.4444544798       -2.3612637899        0.4591135939
 H          1.0534872171       -2.8337284467       -0.4146144221
