25
 energy: -42.505286663317 xtb: 6.6.1 (8d0f1dd)
C            3.16055191787976        1.08875766795900        0.08654468391274
N            2.14440500558345        0.07269061149338        0.00947584651475
C            2.36674502622479       -1.25877389273540        0.04050360541155
N            1.16178089192376       -1.89079135586919        0.04572755807993
C            0.14975468750661       -0.97358291917505        0.00275047744985
C            0.77061933057733        0.27733425081630       -0.01552703274847
C            0.01947024643794        1.48680466539900       -0.03201559947437
O            0.47456461749535        2.62487455762892       -0.07226484060899
N           -1.34979033713104        1.21492318096724       -0.04544765531329
C           -2.17181806499762        2.41168596830450       -0.04709990291762
C           -1.98106541075647       -0.05580043028442       -0.05349687787398
O           -3.18788617545862       -0.10950155341238       -0.06703666711973
N           -1.16009420053972       -1.21993748654760       -0.02729173313553
C           -1.05391238302706       -3.25942933373420       -0.08827191404421
H            3.79572810919791        0.93237559259311        0.96989305625155
H            3.75287031692700        1.08407729104354       -0.83085760389206
H            2.68067039584511        2.06341866046327        0.15217743632073
H            3.31066214314319       -1.78816716721843        0.04908120138273
H           -1.43346243275759        3.21852126280188       -0.00220730771878
H           -2.77957705647518        2.44663133729651       -0.95334683578470
H           -2.83847055363396        2.39363647253984        0.81773100857861
H           -0.60944692130704       -3.52900812191639        0.84934610781158
H           -0.45231181771847       -3.47551109972565       -0.94300174124832
H           -2.11792036446728       -3.32939251833948       -0.12471752715507
H            0.90129833311321       -2.86994591042711        0.13102739801462
