  25
        -42.24451801
 C          3.2889419152        1.3429946566        0.0101924601
 N          2.4251616570        0.1907637067        0.0010551381
 C          2.7869424160       -1.0855341189       -0.0012130988
 N          1.6973696835       -1.8775179242       -0.0023312188
 C          0.5935165294       -1.0778300557       -0.0004849264
 C          1.0539065063        0.2353028621        0.0020402894
 C          0.1291794217        1.3433060964       -0.0021531168
 O          0.4028109238        2.5189763474       -0.0080328230
 N         -1.2004853613        0.8765409573       -0.0003695552
 C         -2.2592133086        1.8711711787       -0.0002464645
 C         -1.5426030380       -0.4430713957       -0.0007562157
 O         -2.8299945368       -0.6664313571        0.0004464878
 N         -0.6893704983       -1.4420123627       -0.0020688427
 C         -3.2747635064       -2.0202947271        0.0033079342
 H          3.8615316628        1.3810230055        0.9375345907
 H          3.9824024876        1.3053177724       -0.8295780951
 H          2.6717846481        2.2380492571       -0.0655089210
 H          3.7991826154       -1.4407928608       -0.0027450596
 H         -1.7894158398        2.8530371571        0.0009317342
 H         -2.8804858699        1.7560940163       -0.8872099934
 H         -2.8814315442        1.7540670412        0.8857669208
 H         -2.8707008956       -2.5554210402        0.8632589772
 H         -2.9654847940       -2.5242229339       -0.9113430674
 H         -4.3603768655       -1.9663143553        0.0586496127
 H          1.6887027089       -2.8878244764       -0.0050642137
