25
 energy: -42.109744103880 gnorm: 0.002663683850 xtb: 6.6.1 (8d0f1dd)
C            2.68798163883278        1.31798495582841        0.00013454016955
N            1.93688893668532        0.09326483728334        0.03449512838448
C            2.41737872458454       -1.14416340983772       -0.08144222150355
N            1.40161304820189       -2.01779287020138        0.03126961545911
C            0.24093401085894       -1.29158231540049        0.21662284288778
C            0.58409052828550        0.03648057396056        0.21075693251142
C           -0.25624260318815        1.29571090304821        0.44123718311816
O           -0.28324918495548        1.74190307346402        1.58608168338383
N           -0.80077362761020        1.71276728121008       -0.66489985258803
C           -1.58542455064091        2.89481208198227       -0.73480221584420
C           -1.67750200718645       -1.57994992533704        1.49200727437199
O           -2.19764539279656       -1.22763305938276        2.46298651531626
N           -1.01011095361253       -1.90497608479202        0.45531215568395
C           -1.51777855235333       -2.87560903576735       -0.52859069973398
H            2.45530010679690        1.90940562190680        0.88793748767036
H            3.75270299222498        1.10016421738494       -0.02744782065135
H            2.40851094666228        1.90146338718815       -0.87845913249114
H            3.44471206535034       -1.40692087890590       -0.23704743521773
H           -0.97873249123343        3.78420460661341       -0.53656964415190
H           -1.99776371560308        2.96098172758110       -1.74164022805465
H           -2.40290453588947        2.87817869033085       -0.00586709559971
H           -1.06170390218457       -3.85466624906238       -0.37303864451350
H           -1.28950547179348       -2.51373839636860       -1.53027417300447
H           -2.59605253239344       -2.97005399228293       -0.42173452181795
H            1.48570803707990       -3.02199719859685       -0.02585605576737
