72
 energy: -99.388490539145 gnorm: 0.007920468646 xtb: 6.6.1 (8d0f1dd)
N           -1.44904974303201        2.32922180511641        2.08239405669652
C           -1.65348618274566        1.50486708069658        1.16368538833516
C           -2.88744305758979        1.49814083878349        0.30385656301561
C           -3.48222277906553        0.10011812716449        0.29849680148651
C           -4.39360762306941       -0.28358713517917       -0.68395850858849
C           -5.00155280381254       -1.52984906277826       -0.66206118271254
O           -5.89218150422172       -1.97801136983402       -1.56605600888157
C           -6.30022326685522       -1.13507762606865       -2.61782156918474
C           -4.69552947569423       -2.44176006959800        0.38754124391087
O           -5.33822400837681       -3.62110747494063        0.33613261213069
C           -5.13447393074201       -4.56265703940546        1.36449741646699
C           -3.79018771556063       -2.05099749076766        1.36419417153330
C           -3.19782175270496       -0.79901954109197        1.32010950637848
C           -2.40493859389273        1.90429425388829       -1.11331409168715
C           -1.45744054427539        0.91069482336850       -1.80521740265048
C            0.04594099099846        1.23723953667112       -1.65922023196165
N            0.68736055802060        0.41811932365115       -0.64512538721300
C            1.73387108025013        1.07139916956300        0.13518543403638
C            2.94077446488563        1.44868300633485       -0.65994662979809
C            4.22203696665541        0.94240542586862       -0.53916798251523
C            5.26284366887686        1.50554135706425       -1.33170141581666
C            6.56371843649991        1.09284314626288       -1.21091529478432
C            6.91421925443506        0.07835152643897       -0.31433019471990
O            8.14563039323844       -0.39094370962600       -0.10811025177129
C            9.23823841529300        0.16965322301062       -0.80313516392189
C            5.88366987548799       -0.53735604578267        0.46818297451329
O            6.31728931505731       -1.52283757975385        1.27858713416913
C            5.39316854634121       -2.19848930588536        2.09809398369452
C            4.58541228544482       -0.10591069248818        0.35470591374468
C            1.06685027261596       -0.89157633606934       -1.12128452771510
C           -4.00145867499198        2.47589679247173        0.78651723134814
C           -4.47966063345129        2.12890264440489        2.19458023528272
C           -3.58902435925933        3.94483078813904        0.73982142269974
H           -4.64204246346634        0.40335177590441       -1.47532921910490
H           -6.77646983244037       -0.22517356507019       -2.24028949295655
H           -7.02662986902047       -1.71104093433663       -3.18790358584311
H           -5.46067409736093       -0.86807445821286       -3.26728655971779
H           -5.43487774316707       -4.16249275310221        2.33746412710304
H           -5.76638364504909       -5.41209695565184        1.11273029270004
H           -4.09063006726161       -4.88768983743166        1.40932318379534
H           -3.54720438845648       -2.71559654503685        2.17719040776388
H           -2.52231167783197       -0.51931911333348        2.11357777068782
H           -3.28890104492514        2.04232006749770       -1.73657499063456
H           -1.91595111771407        2.87586169185845       -1.04312722681791
H           -1.65115871191804       -0.09622066463531       -1.43119633931863
H           -1.69208828066808        0.91007744328744       -2.86977766235917
H           -0.93054128399770        0.73619177048801        0.85960502555669
H            0.15350008156876        2.28592572745356       -1.36961921121286
H            1.99392396196982        0.40299833719506        0.95830698292831
H            1.29863303195867        1.98322417530344        0.56152479611938
H            2.77502403396883        2.20962197788704       -1.40945535074462
H            0.53598638554059        1.10124794979258       -2.62560136805449
H            5.01512407006587        2.29175448364485       -2.02765635030538
H            7.32416819443351        1.55976548625836       -1.81598836277523
H            9.35443772344779        1.23191460433914       -0.56992235762843
H            9.13420896268042        0.04038887685488       -1.88399575831768
H           10.11463101872032       -0.37487732208335       -0.45667846143125
H            5.97654497075243       -2.92930910084399        2.65463034535603
H            4.90508210258445       -1.51485388731653        2.79962706651618
H            4.63579838451042       -2.71789297746824        1.50235006126276
H            3.81759517568078       -0.57351726459575        0.94720034612614
H            1.91316736757947       -0.84999091227109       -1.81974958716072
H            0.22202020863473       -1.34877791948994       -1.63187308891309
H            1.34478134671388       -1.52138874808128       -0.27714171843702
H           -4.84653838269282        2.33697413813638        0.10098957025938
H           -3.67442793000137        2.27703762529460        2.90835274201143
H           -4.82237514333693        1.09861298083930        2.25431048345971
H           -5.30589415057991        2.77870705950062        2.47099718282430
H           -2.69401895230416        4.10042809161736        1.33480749430181
H           -3.41306272090423        4.28695208607852       -0.27624613182516
H           -4.38698048468365        4.55256110575756        1.15902417572108
H           -0.57144731078521        2.27451263689703        2.58944936616309
