  25
        -42.16795586
 C          3.0977253682        1.2489452121       -0.1937021596
 N          2.2671784628        0.0789532590       -0.0889336086
 C          2.6764395751       -1.1881877761       -0.0787365036
 N          1.6098969527       -2.0147046949        0.0378634161
 C          0.4832966642       -1.2394370245        0.0986096911
 C          0.8980099280        0.0803831564        0.0299133450
 C         -0.0454958773        1.1813328537        0.0821881606
 O          0.2261207478        2.3560112540        0.0214873991
 N         -1.3579035154        0.6850747834        0.2354665442
 C         -2.4477205659        1.6923012811        0.2563065558
 C         -1.7486076280       -0.5906938509        0.2858301621
 O         -3.1058188056        1.7368251399       -0.9506059890
 N         -0.8278640109       -1.5693014744        0.2128671163
 C         -1.2497838782       -2.9538881922        0.2518935538
 H          3.6387376006        1.4157718029        0.7393397639
 H          3.8177696981        1.1268690615       -1.0018315577
 H          2.4632241763        2.1132358884       -0.3893479289
 H          3.6952590234       -1.5128053238       -0.1520087715
 H         -1.9781886175        2.6684080260        0.4114016312
 H         -3.7001400601        0.9804872967       -1.0488360329
 H         -3.1018523381        1.4371892661        1.1016792648
 H         -0.8604297837       -3.4514704340        1.1409061912
 H         -0.9106525400       -3.4793225399       -0.6410452861
 H         -2.3363127677       -2.9720007447        0.2842966184
 H          1.6532627739       -3.0234871450        0.0569611558
