25
 energy: -42.052506430967 gnorm: 0.005702653674 xtb: 6.6.1 (8d0f1dd)
C            2.98853319988714        1.01463734155322       -0.03482665013208
N            2.04589341911997       -0.02672258459086       -0.33420255759271
C            2.29313074557642       -1.21841888830829       -0.81915967452634
N            1.19763126049396       -1.94408958419176       -0.96594619799122
C            0.03296611758473       -1.15890336198854       -0.60537598621214
C            0.65188397776262        0.10406355613929       -0.11225661158904
C            0.08706742748478        1.15398753505223        0.45476446067696
O            0.40244908030005        2.32352660031965        1.01548585722281
N           -0.97776710958687        1.78853294610993        1.01974257223675
C           -1.92226945708285        2.54414854656641        0.23914003245222
C           -1.34135075083697       -1.38213722937327       -1.23880239720840
O           -2.03690639349863       -1.24010051922399       -2.18088042556709
N           -1.11484522871034       -1.80355423346330       -0.02020991354984
C           -1.58582794790494       -2.37886303734083        1.20327458648410
H            2.87937390108660        1.33118550966459        1.00308282772305
H            4.00022669781217        0.65448966752630       -0.20235376446362
H            2.80201432408765        1.88084153067171       -0.67203193014162
H            3.28085451947070       -1.56692349383526       -1.06913182252637
H           -2.24231004058269        3.39059806394419        0.84460265233504
H           -1.52190093986213        2.89964318246121       -0.71306718452074
H           -2.77374129075852        1.88858954196712        0.06403273656198
H           -1.47002492049487       -1.66133652873711        2.01536608281307
H           -1.02603542193140       -3.28573286639650        1.43446472247547
H           -2.63851065382303       -2.62515797303060        1.08086118939201
H            1.14989699850725       -2.86406517989424       -1.37540098645228
