25
 energy: -42.150842209891 gnorm: 0.009238378213 xtb: 6.6.1 (8d0f1dd)
C            2.78522739475351        1.29619512552524        0.46463372888040
N            2.21403108390587        0.21707280698648       -0.00830732198026
C            3.02734411321370       -0.77671924395482       -0.60346985760757
N            4.27124668299147       -0.66330918835908       -0.52109660624599
C            0.22012688431140       -1.18393728270640        0.12449977177438
C            0.81792418730943        0.03943045470795        0.01548110258592
C           -0.02360960460184        1.24390673502587       -0.08989454648999
O            0.42169241800403        2.36012511109418       -0.24103834577802
N           -1.38052752911950        1.00031130363664       -0.01109967101914
C           -2.28647952175034        2.13923129032536       -0.02212074616256
C           -1.98503471218930       -0.23489452838478        0.11700335856653
O           -3.17481667480862       -0.36730126645377        0.20029676629206
N           -1.11229110178515       -1.33373922907952        0.14664834573951
C           -1.70052856881798       -2.65377861219250        0.25531424724676
H            3.84823691831521        1.39879002280986        0.31166336583488
H            4.86175902133201       -1.36566287555175       -0.96377020357012
H            2.21745063232244        2.06647213401100        0.95597208203118
H            2.46648314190160       -1.56932455446807       -1.11199858896903
H           -1.70990251559425        3.03614537528528       -0.23679285338782
H           -3.05832269289842        1.98883552760759       -0.77710024157914
H           -2.77329782684255        2.22892452865362        0.95098019723033
H           -1.32243182371797       -3.16746020998861        1.13907649335442
H           -1.47261266113758       -3.24417204970537       -0.63302383971603
H           -2.78084687306828       -2.53854105874863        0.33957005118087
H            0.78961114206580       -2.09836177447016        0.22974492968783
