72
 energy: -99.593041762300 xtb: 6.6.1 (8d0f1dd)
N           -1.64667571166752        2.92401561563501        2.26144165306783
C           -1.65628519839233        2.20633439876670        1.23847887605798
C           -2.81189816467318        2.08068190500353        0.29171290301782
C           -3.37379095527793        0.67055309092670        0.37204118576098
C           -4.33935484912305        0.25640757043368       -0.54852373092640
C           -4.89120719090466       -1.00973018337501       -0.49451969846364
O           -5.83226597764014       -1.48955222284222       -1.34600354086126
C           -6.39141453065122       -0.62353629698181       -2.30248057122688
C           -4.46012342462708       -1.91923344482527        0.50092875230244
O           -5.04137532181036       -3.14546033771789        0.46252360962930
C           -4.70167092795970       -4.08561898142020        1.45099791380993
C           -3.50529153660610       -1.50562975927273        1.41079847669268
C           -2.97290395156445       -0.22201264202402        1.34847119184591
C           -2.24325017748726        2.34405709525796       -1.12795494110246
C           -1.41052254796680        1.19009793565885       -1.72827362838425
C           -0.06626782907016        1.01095317239557       -1.13018226133004
N            0.46016174509870       -0.12397126187034       -0.68857526883401
C            1.84502097821346       -0.17360121927638       -0.26062496020759
C            2.80587482881903       -0.75039477152003       -1.34802270838645
C            4.22719798911174       -0.63041660516858       -0.91682637601774
C            4.92175315279215        0.55178380418630       -1.15621466233590
C            6.20836976895389        0.71757523694183       -0.74728218900624
C            6.95863620667533       -0.27276830008350       -0.03421914016715
O            8.13414983334838       -0.00435022692012        0.31172984636241
C           10.72748933792339        1.54909224286098        0.63891164473737
C            6.19545887784642       -1.52069986820329        0.19566561550541
O            6.86845620788768       -2.51195561568490        0.85445241378322
C            6.22666075012768       -3.73261894525998        1.09394266977195
C            4.89108562842865       -1.65525674116325       -0.23387106235066
C           -0.25548666461229       -1.37582934339512       -0.76543238273533
C           -3.95657195577005        3.08911398121749        0.59797474534363
C           -4.60412543569198        2.79801104612763        1.94952340997185
C           -3.49956103291520        4.54485896736078        0.54925225995553
H           -4.67205084182021        0.94395879985824       -1.30812192908055
H           -6.85894092407216        0.24722389440300       -1.83140961493187
H           -7.15398076804717       -1.20734349321279       -2.81468945295792
H           -5.64651607136885       -0.28706888080585       -3.03154181999268
H           -4.94905734207736       -3.72300575867228        2.45364748724204
H           -5.29860679689022       -4.96945059245560        1.23213293730550
H           -3.63919231705346       -4.35147162769979        1.40966354375398
H           -3.17316325070657       -2.16718341097074        2.19466472179281
H           -2.25838472484409        0.07835886406324        2.09970993624129
H           -3.07906119445187        2.53263478547505       -1.80397817892452
H           -1.62921525430969        3.24446256382438       -1.09523876117183
H           -1.98411698848332        0.26709687025111       -1.68574369174247
H           -1.25079674358456        1.43674633247195       -2.78956814308468
H           -0.77779382134659        1.62313203681089        0.90008594469945
H            0.57575701756484        1.87950040967625       -1.08170432535591
H            1.92620627900060       -0.80319494555374        0.63000152421282
H            2.18414786988093        0.83701299771872        0.00108550270186
H            2.64151297008364       -0.18001020889469       -2.26492411582106
H            2.54356086977095       -1.79478371401053       -1.53857077910449
H            4.44179203640352        1.35347464984847       -1.69523007334433
H            6.72333254048365        1.65240898079471       -0.94971303807528
H           10.36887515724968        2.37281316184997        1.18681658399363
H           10.92940513527935        1.69649153724055       -0.38191720561471
H           11.19219934319342        0.74208746127036        1.15442520037352
H            6.96245184634464       -4.33894740775274        1.62031454252988
H            5.33873781859739       -3.62329461895353        1.73002965441190
H            5.93933087655327       -4.23738057834191        0.16511982641360
H            4.35247975004014       -2.58153762711037       -0.06637402638970
H           -0.41396693195650       -1.68065638612101       -1.79994292103646
H           -1.22249582511247       -1.28597195278931       -0.26711379382930
H            0.32769831288945       -2.14697836373974       -0.25913330560409
H           -4.71437588086890        2.94665221904229       -0.18032556857939
H           -3.88510104455834        2.94724378488875        2.74573342371287
H           -4.97785553950489        1.77811220885762        1.99435011714903
H           -5.43792148805533        3.47598096274168        2.11015649569021
H           -2.73081422161125        4.71900877902949        1.29340270644026
H           -3.12271895297211        4.81660674124157       -0.43248739067272
H           -4.34217178743090        5.19351671581451        0.77433201507173
H           -0.79042692749162        2.94605222752688        2.80782402233280
