  72
        -99.24006920
 N         -1.6751448116        2.6556332199        2.3967262352
 C         -1.7974132535        2.0502390574        1.3141048501
 C         -3.0325283727        2.0188427657        0.4611088979
 C         -3.5944618037        0.6068586283        0.4469910271
 C         -4.5635113647        0.2490620652       -0.4912036701
 C         -5.1031223912       -1.0260183662       -0.5237783028
 O         -6.0384002405       -1.4548183261       -1.3987361153
 C         -6.6165855491       -0.5347433816       -2.2943752774
 C         -4.6640535972       -1.9963688643        0.4159876498
 O         -5.2295770817       -3.2163641943        0.2996324254
 C         -4.8933249729       -4.2172978972        1.2317631138
 C         -3.7170389751       -1.6288199119        1.3580502767
 C         -3.1905726098       -0.3435288864        1.3718177510
 C         -2.5477641293        2.4241454448       -0.9564458649
 C         -1.7117856224        1.3523459679       -1.6719480631
 C         -0.3860784190        1.1325921737       -1.0007976201
 N          0.2593822913       -0.1327689433       -1.2131634353
 C          1.6978886497       -0.2138851500       -1.0084135333
 C          1.1586938450       -0.3473102465       -2.3762023279
 C          4.7443716665       -0.1022081035       -0.6269475035
 C          5.4037305940        1.0823465394       -0.7923804295
 C          6.7601625127        1.1247606891       -0.4650726863
 C          7.4066362523       -0.0069819336        0.0103481748
 O          8.7096408451       -0.0729274337        0.3614055922
 C          9.5050448956        1.0851178040        0.2646962399
 C          6.6872221397       -1.2244756368        0.1601355740
 O          7.3990240804       -2.2714890651        0.6229080616
 C          6.7663701055       -3.5173407571        0.7868075209
 C          5.3314092367       -1.2517283986       -0.1697191154
 C         -0.5345232013       -1.2930863564       -0.8108309777
 C         -4.1541994075        2.9853464128        0.9437997095
 C         -4.6917542596        2.5777047319        2.3130940575
 C         -3.7118157890        4.4450893299        0.9798869329
 H         -4.9067302084        0.9834873306       -1.2007807455
 H         -7.0940946636        0.2948091897       -1.7644931720
 H         -7.3724957280       -1.0955727528       -2.8405919633
 H         -5.8788446865       -0.1416837478       -3.0017750190
 H         -5.1792776459       -3.9304709375        2.2478556163
 H         -5.4593817668       -5.0969444550        0.9328363759
 H         -3.8239124627       -4.4490285396        1.2051652234
 H         -3.3885387188       -2.3346291047        2.1035572383
 H         -2.4778494083       -0.0834559964        2.1397042807
 H         -3.4141358979        2.6577089483       -1.5745329688
 H         -1.9493843269        3.3317668376       -0.8703188857
 H         -2.2869817440        0.4275526576       -1.7096896665
 H         -1.5711632525        1.6943878555       -2.7086740111
 H         -0.9674449985        1.5072909400        0.7772077515
 H          0.3117305580        1.9529991204       -1.1223915127
 H          2.0720236351       -1.0862343551       -0.4930419565
 H          2.2023488896        0.7002048182       -0.7268785900
 H          1.2464686688        0.4854460437       -3.0581338569
 H          1.1214854373       -1.3178032456       -2.8474899267
 H          4.9175681879        1.9708618189       -1.1634881175
 H          7.2950351472        2.0524889276       -0.5907952283
 H          9.1195295412        1.8903136523        0.8978675694
 H          9.5791223271        1.4357118032       -0.7693571694
 H         10.4919319592        0.7908545492        0.6169168829
 H          7.5364860530       -4.1909467749        1.1581458072
 H          5.9532644494       -3.4610887053        1.5181646948
 H          6.3801704198       -3.8988931962       -0.1638991182
 H          4.7678581113       -2.1658126414       -0.0639426042
 H         -1.3147232506       -1.4884875147       -1.5438965708
 H         -1.0066104656       -1.0967471690        0.1514544244
 H          0.0973041475       -2.1742433110       -0.7346661080
 H         -4.9709585531        2.8938693106        0.2182646013
 H         -3.9080391460        2.6598144704        3.0597184247
 H         -5.0648011355        1.5565445252        2.3023545495
 H         -5.5082978817        3.2372357543        2.5952117797
 H         -2.8765037121        4.5688676116        1.6626262869
 H         -3.4270927651        4.8075908474       -0.0040525214
 H         -4.5351772957        5.0591651253        1.3355603083
 H         -0.7751988157        2.6432383472        2.8647024496
