25
 energy: -42.038804208118 gnorm: 0.005714668773 xtb: 6.6.1 (8d0f1dd)
C            3.22245707876372        1.18190331533245        0.65031835782714
N            2.38984288769419        0.23623295129712        0.01152840671313
C            2.69366647017522       -0.97662140984051       -0.70658739803180
N            2.00274965388795       -2.02933957033257       -0.09491040892147
C            1.14854241783101       -1.16629798262606       -0.89590789724740
C            1.07195709336518        0.15467717921658       -0.22700827940418
C            0.12072870458719        1.23183068801767       -0.05071493941834
O            0.52491433378391        2.36222391616768        0.19532757570377
N           -1.22702373252338        0.97947867259942       -0.20791841888361
C           -2.11525125480311        2.11305638354492       -0.32123500962214
C           -1.86385360160320       -0.27891161410529       -0.09157676266500
O           -3.05949385262750       -0.35752012518757       -0.32798441416792
N           -1.08658084388708       -1.27476196120026        0.31620189166577
C           -1.57488513438493       -2.56257061015866        0.57944677447913
H            3.69625527796845        0.73730620936803        1.53197718667302
H            4.02000348170022        1.49211543501886       -0.03153081807621
H            2.63008823971136        2.05321474688746        0.93722811559280
H            0.54107493493798       -1.54060012254588       -1.69793984046499
H           -1.52680674442101        3.01436689269596       -0.48934017428964
H           -2.81311124562010        1.94203903913858       -1.14487469827782
H           -2.70678844492262        2.23064170825831        0.59214513176821
H           -0.97426726489231       -3.00381477169327        1.37954796062964
H           -1.48868499811573       -3.20590811699555       -0.30662847436290
H           -2.63282016724200       -2.54756077075060        0.87730851295301
H            2.16771822473777       -2.96694154050146       -0.44570076227107
