25
 energy: -2.648590552774 xtb: 6.6.1 (8d0f1dd)
C            3.25835499348532        1.23173041441918        0.09139658470488
N            2.34544400741690        0.12782792434100        0.02881440421783
C            2.67130680986234       -1.21824638465226        0.03454827909895
N            1.50282405122271       -1.93684107132562        0.00770786337648
C            0.44274105556046       -1.10573959986108       -0.00920208465866
C            0.95016837041010        0.20270703422779        0.00576295407543
C            0.13819627631595        1.35509282428717       -0.00951665222101
O            0.48349871014715        2.54160470433742       -0.01236206943670
N           -1.24596937031602        1.00126158072247       -0.03218205443212
C           -2.20243539205906        2.10170477471023       -0.05017428853736
C           -1.77314938348321       -0.24950276539672       -0.04799772724184
O           -2.97747315263821       -0.42626351257976       -0.07102699635370
N           -0.91350237710669       -1.38105068956405       -0.03772376994897
C           -1.64485289317862       -2.65729860716361       -0.06411148518206
H            3.75511599118544        1.27506587830624        1.06696079529791
H            4.02803406588664        1.13868784353720       -0.68145548212637
H            2.69686788068186        2.15990996079201       -0.05448506341586
H            3.65550581130882       -1.62632736879983        0.04679590227333
H           -1.63756756731015        3.03451971878098       -0.02592384715544
H           -2.80729879609530        2.04692304695833       -0.95492897309117
H           -2.85795535791499        2.02896235537805        0.81681210602114
H           -1.43360115381886       -3.25724978276483        0.82405074632999
H           -1.40693068709327       -3.23543811638468       -0.95993021637789
H           -2.69627694261199       -2.40003188963289       -0.07697194859173
H            1.47887048566430       -2.94008843635422       -0.00161367304636
