25
 energy: 32.194166403126 xtb: 6.6.1 (8d0f1dd)
C            3.26603602581028        1.36031600175497        0.09758723010588
N            2.42230879701550        0.19607076880743        0.03856106483666
C            2.79439778038323       -1.13502780187991        0.05258274251990
N            1.66249128164522       -1.91620760994512        0.02159977257631
C            0.53424590908006       -1.16691697883530       -0.00519719185429
C            1.02052834512021        0.17997961149811        0.01806668435120
C            0.21317479599722        1.31962237301731       -0.01215331187873
O            0.55565282431537        2.50955531826501       -0.00968904562962
N           -1.15591438059136        0.94021518925386       -0.03704281022394
C           -2.13023995235688        2.03318096490375       -0.05081988771933
C           -1.66804785260862       -0.32290419611949       -0.04933888830600
O           -2.88731279854217       -0.39427438441295       -0.06909831219945
N           -0.87078542988820       -1.50133002194450       -0.04386571001640
C           -2.01388318588259       -2.74119846237951       -0.07715159487320
H            3.81030695436793        1.40700926512706        1.04732667355454
H            4.00937903288103        1.34741416563047       -0.70762094848327
H            2.64974469288821        2.26023130598062        0.01063374634015
H            3.79692439102779       -1.49479584573180        0.05585149299129
H           -1.55316911079067        2.95629845829317       -0.02898010092753
H           -2.73475020771941        1.98455768536975       -0.95389107964400
H           -2.77443002902719        1.97047867129367        0.82256438648271
H           -1.94802886567830       -3.36148418404585        0.80685026068030
H           -1.92821787899666       -3.35005830140051       -0.96915252236472
H           -2.94333068267922       -2.16666850696671       -0.08576832157306
H            1.70468875814190       -2.92165122193894        0.01803445168317
