25
 energy: -42.140618432802 gnorm: 0.004237710205 xtb: 6.6.1 (8d0f1dd)
C            4.04786851664431        0.71685685326281        0.30847130804938
N            2.72843682639777        0.20377663071200        0.22241103657946
C            2.46947347134963       -1.02070392153730        0.06556542311661
N            1.19123873660384       -1.49670115931078       -0.02062063124738
C            0.05916150772373       -0.73624067515324        0.05079415869736
C           -0.09332141603781        0.60897908383214        0.25780273475936
C           -2.01708774610739        2.86261423845436       -0.87926849629864
O           -1.73321588867711        3.16947607096633       -1.95441628723454
N           -1.44844527018031        0.86433937758970        0.25388644624698
C           -2.13920514211891        2.13259205792182        0.34572478582265
C           -2.14834001011974       -0.31478411251656        0.01745461650633
O           -3.34625851710639       -0.41477038012995       -0.05810040488767
N           -1.18867943768701       -1.29748574643746       -0.09065285555949
C           -1.51172278164454       -2.68237344264480       -0.32115650390894
H            4.15672406424421        1.23255731570605        1.26390274695195
H            4.82100692872488       -0.05485730339688        0.22201845765990
H            4.18317539679294        1.45510292465471       -0.48360269783593
H            3.23117049581257       -1.80369333815080       -0.01747318561122
H            0.65202352593501        1.35537710716997        0.42599095454865
H           -3.20393701590963        1.88892122021888        0.51917818279518
H           -1.77465990254135        2.72928312692648        1.19319540152659
H           -1.16809675939828       -3.30510625549284        0.50644567380994
H           -1.07863926770961       -3.03306220566418       -1.25935337535125
H           -2.59716694114845       -2.75072691499853       -0.38595964945789
H            1.06892814025531       -2.49113201038710       -0.15106622177393
