  72
        -99.33042295
 N         -2.1728742996        3.4020403845        2.1337144242
 C         -2.3673777417        2.7910266097        1.0624896550
 C         -3.7392432720        2.5360330020        0.4863591247
 C         -3.9244632745        1.0190987792        0.3395060265
 C         -4.8876090346        0.5180561420       -0.5324851917
 C         -5.1140690718       -0.8450214779       -0.6449937066
 O         -6.0246555213       -1.4203221714       -1.4517098725
 C         -6.8751438223       -0.6074027972       -2.2273902643
 C         -4.3498420519       -1.7477022464        0.1455543705
 O         -4.6401175447       -3.0517326466       -0.0237920388
 C         -4.0035648006       -4.0110973173        0.7869139952
 C         -3.3946001989       -1.2346654129        1.0102703479
 C         -3.1820629937        0.1334901049        1.1051528657
 C         -3.7593255658        3.1727580510       -0.8460085817
 C         -1.0901494794        0.3723024156       -1.6220308698
 C          0.1380677147        0.4435004257       -1.0921547009
 N          0.8157476147       -0.5621710850       -0.4763868319
 C          2.2111876230       -0.4051216413       -0.1680870810
 C          3.1331787696       -0.8431630277       -1.3284947657
 C          4.5677606952       -0.6021336689       -0.9642590874
 C          5.1425446260        0.6482374442       -1.1509981165
 C          6.4552869713        0.8916226801       -0.7832220661
 C          7.2268967126       -0.1139401925       -0.2149857943
 O          8.5059720310        0.0052331765        0.1801184757
 C          9.1681926545        1.2382011128        0.0157851286
 C          6.6480638343       -1.4010081774       -0.0193570913
 O          7.4673574027       -2.3158789149        0.5288794482
 C          7.0003327482       -3.6267116462        0.7418793832
 C          5.3296075546       -1.6174108115       -0.3925564149
 C          0.2575229743       -1.8880605797       -0.4398204646
 C         -4.9235763573        3.0781163177        1.3494303532
 C         -4.9837416188        2.4350676103        2.7288351514
 C         -4.8539529900        4.5964611011        1.4736828238
 H         -5.4726439632        1.2027363155       -1.1223625903
 H         -7.4833970596        0.0497931766       -1.5984550064
 H         -7.5254560806       -1.2956939440       -2.7637229167
 H         -6.3101995222       -0.0073637714       -2.9475465810
 H         -4.1920163560       -3.8271649375        1.8485662063
 H         -4.4393127739       -4.9672777588        0.5034470922
 H         -2.9235840290       -4.0382750573        0.6068211696
 H         -2.8183550356       -1.8964288943        1.6372541101
 H         -2.4467442594        0.4995175326        1.8039961942
 H         -4.6887695781        3.4079585433       -1.3252277028
 H         -2.8513744999        3.4662382837       -1.3366208744
 H         -1.6750135487       -0.5274080350       -1.6481290410
 H         -1.5403149841        1.2410682950       -2.0628517175
 H         -1.5659058469        2.4033286112        0.4162741239
 H          0.6747709951        1.3824175786       -1.1109915828
 H          2.4485914244       -0.9992781835        0.7193178751
 H          2.4096884710        0.6440467885        0.0634760447
 H          2.8694760604       -0.2695313907       -2.2186333963
 H          2.9681986929       -1.9006130532       -1.5364337765
 H          4.5650982763        1.4424267320       -1.5988619422
 H          6.8740166384        1.8711197842       -0.9466063030
 H          8.6824772060        2.0327615593        0.5907522019
 H          9.2192392499        1.5280119098       -1.0380459024
 H         10.1757331365        1.0812778454        0.3962551302
 H          7.8375227911       -4.1678244956        1.1779374626
 H          6.1565550566       -3.6438289404        1.4384474686
 H          6.7096985685       -4.1061437221       -0.1977611946
 H          4.8836701712       -2.5895676311       -0.2519351822
 H          0.2157921544       -2.3386753313       -1.4363835269
 H         -0.7567288499       -1.8457117063       -0.0403065175
 H          0.8640746719       -2.5176063701        0.2069971016
 H         -5.8369770695        2.8124208491        0.8054364613
 H         -4.0963054581        2.6925819213        3.3001213720
 H         -5.0609174649        1.3516803623        2.6591161254
 H         -5.8569213670        2.8061741412        3.2601649680
 H         -3.9775583311        4.8831654023        2.0469789483
 H         -4.7973129951        5.0654691169        0.4932503604
 H         -5.7388835589        4.9651952621        1.9856435436
 H         -1.2142769585        3.5566209617        2.4295510356
