72
 energy: 82.644325135974 xtb: 6.6.1 (8d0f1dd)
N           -2.21937281982287        3.00667733833870        2.82504381635075
C           -2.02468950735418        2.23088298597184        1.83799193738037
C           -2.73614508613975        2.33290533843113        0.57091736598335
C           -4.10617970418469        0.70793420326770        1.22863162356649
C           -4.92032355361965        0.49979321591389        0.09461979653331
C           -5.18803496310110       -0.72931224916371       -0.48366729450794
O           -6.05034878827250       -0.97754827243211       -1.51847693922126
C           -6.80709541779669        0.08902936974868       -2.02080982840033
C           -4.57045584607121       -1.86606275792686        0.07395212858597
O           -4.81546129982535       -3.07507485047107       -0.51379342193913
C           -4.11478456623394       -4.15640113757778        0.08755972402857
C           -3.76409546234135       -1.68307353888047        1.18301234121565
C           -3.47324918334423       -0.41872993447101        1.69733649514472
C           -2.00077404435955        1.94708011251852       -0.62529722373298
C           -1.35537274028291        0.59666028268978       -0.67180272893433
C            0.11628075662617        0.57285783247348       -0.73267249997938
N            0.86050014992111       -0.27936259697609        0.04340920164704
C            2.28262378656235       -0.11867012914018        0.09232262027381
C            3.04521021626285       -0.82037106054867       -1.06083021952791
C            4.51362713877116       -0.63589834128537       -0.81245718007255
C            5.16314888100174        0.52696479502154       -1.18273605420112
C            6.52380258903379        0.70527621765383       -0.94229503061775
C            7.25105415795497       -0.26333665989547       -0.26625965606126
O            8.55082725169596       -0.17923712385468        0.13449658297382
C            9.22731905665908        1.02521560355686       -0.08427270138221
C            6.59597637422389       -1.45604685329895        0.11149225360371
O            7.33463172167437       -2.37582233594365        0.79369844310647
C            6.69704921844590       -3.57909002936394        1.15918382199495
C            5.25669517801911       -1.62749579672445       -0.17892506349246
C            0.38100508382175       -1.63323507776469        0.13272517909869
C           -3.70060034203838        3.30357538733941        0.46642861327366
C           -4.49388063957234        3.98981458531042        1.61545806942317
C           -3.85638475544964        4.10912155897588       -0.76528103615043
H           -5.42760065205269        1.36292546345857       -0.29490256610848
H           -7.37195550635558        0.55746331734160       -1.20876280921193
H           -7.47894630255751       -0.36158916592535       -2.75607585170058
H           -6.18919593130116        0.86590327779356       -2.48632196043564
H           -4.32079303416512       -4.46212313310547        1.12344435919931
H           -4.33359447685519       -5.01061536805073       -0.50550257452522
H           -3.05836452429493       -3.92370890557418        0.08596649808567
H           -3.32743408112888       -2.55569873462286        1.64755238369433
H           -2.90338093900424       -0.29383627334010        2.59112298184243
H           -2.66402285446566        2.06128158925778       -1.45017465282797
H           -1.27979204731614        2.72773315354262       -0.73137820827731
H           -1.62685615178890       -0.02544497254388        0.18292481464902
H           -1.83219050640976        0.15666538901761       -1.53511456126145
H           -1.22848908536647        1.53856838890624        1.84852354957953
H            0.59243934287474        1.45578677569927       -1.06447922010809
H            2.66763614284149       -0.53429477722735        1.02026019450275
H            2.50415000057451        0.95384603391784        0.13668867299222
H            2.76051428931248       -0.39688129804033       -2.03236819222687
H            2.81184442328166       -1.89379450898408       -1.11439995162209
H            4.60895101075223        1.30783959053097       -1.68404574200315
H            7.00574999972309        1.61271294771075       -1.28035261701233
H            8.70842379366140        1.87581154947374        0.35715696393639
H            9.31325897491440        1.21850129442755       -1.17967057631694
H           10.21697875764460        0.90980302368084        0.35750173391183
H            7.47018982062991       -4.15834170792897        1.66081586814955
H            5.86835547941711       -3.41422296035542        1.85119253035966
H            6.34911186182757       -4.12885242515349        0.27803001950157
H            4.77231518841634       -2.55113672761218        0.08917805131786
H            0.06271399641109       -2.04076397739127       -0.82568953106405
H           -0.48292562849258       -1.66972692510123        0.78806414312221
H            1.16622302425163       -2.24445799271578        0.57313474261186
H           -4.27000028354013        1.77959425157213        1.65391052487994
H           -3.91403006794178        4.35524685967048        2.40947269219842
H           -5.21928472145360        3.41454290738487        2.16389536724974
H           -4.89918999692449        4.94779038379931        1.29230090478337
H           -2.91495316872860        4.58626089985774       -0.91977981851836
H           -4.05152049947669        3.52148354581391       -1.66781744279643
H           -4.51677022460979        4.96454207816252       -0.63251773442240
H           -1.48848995473418        3.00651485836073        3.50715062895878
