72
 energy: 91.015788947879 xtb: 6.6.1 (8d0f1dd)
N           -2.28550198233837        3.25804863547005        2.75698659799727
C           -2.17734630811264        2.26887571529349        1.99109192708463
C           -2.92224500753434        2.04724666218384        0.73792540991383
C           -3.76322045682258        0.71677437924755        0.86619069931767
C           -4.75423668833046        0.47863515650839       -0.12803448267253
C           -5.13213097671637       -0.78641410243738       -0.53018634189004
O           -5.97480172282844       -1.09120528161284       -1.55162967577138
C           -6.69989119111040       -0.05070899420222       -2.12361233675965
C           -4.60495987971364       -1.88869627666725        0.16335477355738
O           -4.89891681209972       -3.13020669897164       -0.29969070308573
C           -4.23875340309668       -4.14623870649337        0.42338675843946
C           -3.84413102447008       -1.64587702910244        1.28285398539873
C           -3.43065234418179       -0.36215651391292        1.63451540732037
C           -1.96116908344591        2.01307881337800       -0.44732111363911
C           -1.32831334191562        0.73351906205367       -0.89785899528588
C            0.13049516993284        0.63317042721099       -0.85524550921613
N            0.84527975958743       -0.26140405740787       -0.10291586265321
C            2.27780084465320       -0.12705768494828       -0.01195928891636
C            3.06285042606115       -0.81938004746496       -1.15450808628812
C            4.53095406956832       -0.64977303889798       -0.89865621551200
C            5.19822527890373        0.50429223149710       -1.26391682571272
C            6.53227106802346        0.70368499584027       -0.92641690495747
C            7.21790062433066       -0.25900367273700       -0.19991802612863
O            8.49919175907599       -0.18813467489741        0.25612252419454
C            9.19774664602320        1.00165523949196        0.03612841661121
C            6.55094224070966       -1.45172842204715        0.14535057513214
O            7.25243059849679       -2.38495759259910        0.84427735938818
C            6.58810654047285       -3.58670649666665        1.15919497328312
C            5.23472095656793       -1.62661940580109       -0.20852953421916
C            0.30568218844467       -1.59101666893470       -0.08043337377526
C           -3.96530085016401        3.15164030737669        0.54895083210310
C           -4.70895384692595        3.85692076694882        1.71594109375420
C           -3.68391393535012        4.23546651037345       -0.52160867279278
H           -5.21044735523562        1.32879519141741       -0.60188052892547
H           -7.21611114034030        0.52845152923072       -1.35231639832787
H           -7.40876007222322       -0.55950884135192       -2.77852318368163
H           -6.06687486207935        0.63874478331795       -2.68959951807519
H           -4.43452409256886       -4.26552648098703        1.48602617041779
H           -4.52052611646843       -5.05289333550050       -0.03115084019136
H           -3.16897734214011       -4.00079407623517        0.40526059446130
H           -3.47094237883091       -2.49642139458573        1.82257765276726
H           -2.80091233911727       -0.19610304818560        2.48744286273696
H           -2.48745227890738        2.32430333770626       -1.32252053401520
H           -1.16831232277680        2.69798588686617       -0.25251801366254
H           -1.67188883067696       -0.03749170864306       -0.24400447533856
H           -1.71999497464639        0.55502683641684       -1.87320650837159
H           -1.44391210037317        1.49835472904589        2.14043968159903
H            0.63839657597407        1.51942489722966       -1.11873094795615
H            2.62320298690500       -0.55216400820935        0.92754500014571
H            2.51224128480868        0.94336753438411        0.03280174008959
H            2.77557748552201       -0.36740997747428       -2.10537815514421
H            2.80210052007366       -1.87628261828999       -1.23206015633622
H            4.66689320987800        1.27342106239246       -1.80350891758116
H            7.00831755487365        1.62958171800805       -1.21460771494898
H            8.68539884946021        1.85994245574083        0.47012069098602
H            9.28735874394860        1.19917456906760       -1.06013575271563
H           10.18114299778690        0.86956094131493        0.48635502071188
H            7.33383578455604       -4.19083998146325        1.66586442381805
H            5.73332970747318       -3.42823492123064        1.82836598492882
H            6.24924752413989       -4.11350841072484        0.25732674149991
H            4.72654766168551       -2.53471504012694        0.05490890469226
H            0.00605410465603       -1.97352106531427       -1.06324201354524
H           -0.57935692388053       -1.59365287304309        0.54256971058499
H            1.03655925109095       -2.23860539312202        0.38401693873356
H           -4.67237553745848        2.35990571542122        0.85991911798866
H           -4.00483850002220        4.21691593924533        2.42127497837733
H           -5.33747351864383        3.10187621849637        2.19692419084840
H           -5.31239739898069        4.67862987108328        1.31432106784491
H           -2.73226461103288        4.70496657593776       -0.35876257472555
H           -3.64090940138208        3.85312398599337       -1.55570288628226
H           -4.38260596000515        5.06406210561793       -0.38839782574418
H           -1.63378446950717        3.20741585147418        3.52783619489443
