72
 energy: 78.624544507444 xtb: 6.6.1 (8d0f1dd)
N           -2.24609321271880        3.24331328383245        2.72843068866572
C           -2.15356597408584        2.25760683728536        1.95817752690802
C           -2.94860190306737        2.03705683014540        0.74387991656281
C           -3.75619869322898        0.71622321966248        0.81789966763077
C           -4.71924304866298        0.46537029576893       -0.18593719868664
C           -5.10311299667116       -0.81115501174959       -0.53740532492493
O           -5.95460589812211       -1.14402171160330       -1.54124478712735
C           -6.65731347213530       -0.11003496000291       -2.14754798621693
C           -4.59243576359038       -1.89199590093516        0.19501561042666
O           -4.91544900661910       -3.14023237475122       -0.22160866984044
C           -4.28275197764640       -4.14211094736698        0.53615550383243
C           -3.82102274643579       -1.62976915337649        1.29964768067483
C           -3.39739400155743       -0.34219300334322        1.60720126900353
C           -1.97916062698461        2.03539449584094       -0.46787552448623
C           -1.32128093131943        0.79484030678173       -1.00200470779468
C            0.12810755724388        0.69953193870707       -0.86750703544861
N            0.82753845890593       -0.24316107266616       -0.16116137453876
C            2.25977355946296       -0.12451732708958       -0.04045538863989
C            3.05735120228358       -0.80269142238427       -1.17868082915840
C            4.52222161907619       -0.63922058090829       -0.90214385839005
C            5.19525177991661        0.51500301607411       -1.25459298578216
C            6.52223623786363        0.71585018311105       -0.89151357118176
C            7.19765237503967       -0.25404069463268       -0.16492040110466
O            8.47646822460568       -0.19128728746776        0.29985204821069
C            9.18502736647485        0.99237849992299        0.07841002313590
C            6.52490775526101       -1.44728834298838        0.16430521967665
O            7.21862768140215       -2.38741859690215        0.86061815873596
C            6.54968293009780       -3.58983309776767        1.15876478943571
C            5.21319480023102       -1.61772655303330       -0.20559468293040
C            0.26739116830320       -1.56413303483319       -0.15655922912124
C           -3.98492469875680        3.14067878130509        0.54764586054455
C           -4.73269133500532        3.76684787275273        1.73464988096016
C           -3.63776024457755        4.28302572997262       -0.42413788233572
H           -5.15160818719546        1.30751178154141       -0.69284492727911
H           -7.16111002430562        0.50863822791478       -1.40018547482105
H           -7.37747498416679       -0.62607443616580       -2.78457808314771
H           -6.00774956035039        0.54422641637141       -2.73387976494883
H           -4.47999451094580       -4.18789588205170        1.60130595639504
H           -4.59982613856653       -5.05831451082187        0.12905783801916
H           -3.20793892739529       -4.04019849801228        0.51346920292203
H           -3.49654769117383       -2.47267933607212        1.87630592713815
H           -2.73337418272621       -0.15772053475274        2.43128148391001
H           -2.51092784536053        2.35809280779950       -1.33246523916209
H           -1.17481028416907        2.70044971166815       -0.23211190175833
H           -1.69681726398300       -0.02625111119133       -0.44311567735731
H           -1.64811740632426        0.70233853604635       -2.01259440341649
H           -1.39160589476629        1.50593108606966        2.05782118029088
H            0.65192553696934        1.58274430175368       -1.10488568657997
H            2.57991519134100       -0.56583067037802        0.90048884260426
H            2.51333655294633        0.94060521757996        0.00046270884419
H            2.77688706859910       -0.32790910062568       -2.11875307578924
H            2.79316409678532       -1.85492103796146       -1.27721997487637
H            4.66911499476825        1.28081465599050       -1.80213607412844
H            7.00233100243879        1.64442200174548       -1.16345636318947
H            8.67906759041305        1.85445589935482        0.51284514109140
H            9.27619834479250        1.19214141952101       -1.01666800011110
H           10.16730468476415        0.85243215480630        0.52789330894312
H            7.28732973611290       -4.20155130100661        1.66625751533290
H            5.68675583571631       -3.43478568937875        1.82091270016905
H            6.21353815671457       -4.10832893263812        0.25013239891743
H            4.69695292220133       -2.52316221977006        0.04518877945286
H           -0.02215409276704       -1.94172589563045       -1.14712464924506
H           -0.62343016568868       -1.55715587519839        0.45760585646713
H            0.97623614772280       -2.22695715544448        0.31745849010648
H           -4.74967517407070        2.39182297338730        0.70532695508711
H           -4.00607178282392        4.08878240963236        2.44295744637993
H           -5.32289071346156        2.95718926698054        2.17587825515403
H           -5.40350387812291        4.55581103604263        1.31522038921989
H           -2.69858435438430        4.74959492144609       -0.18017527617545
H           -3.51927413055760        3.95737821135085       -1.47496717625069
H           -4.35727159994743        5.08960877403983       -0.26564884686684
H           -1.56835457867659        3.18537819591423        3.47875788378713
