72
 energy: 106.465665591509 xtb: 6.6.1 (8d0f1dd)
N           -2.27171050835375        3.22520297963433        2.76463824941017
C           -2.13999608814857        2.25918039858140        1.97466654375589
C           -2.88481538144607        2.05582879995301        0.71748175177196
C           -3.77599321749769        0.71524772985486        0.91456322661344
C           -4.78959932835126        0.48967288699295       -0.06995425642547
C           -5.15754227203040       -0.76457827971958       -0.51973995189008
O           -5.99708311167437       -1.04475041021499       -1.55381295616248
C           -6.73885119424578        0.00344919890790       -2.09626162388731
C           -4.61003322692895       -1.88494129410744        0.13472980152085
O           -4.87990650422018       -3.11761437029522       -0.37258165220698
C           -4.19589722003626       -4.15158711805006        0.31045100812901
C           -3.85388385148681       -1.66158362250568        1.26571303028889
C           -3.45131795976210       -0.38308129906739        1.65578696921324
C           -1.96929165912560        1.98311538000578       -0.47433926426088
C           -1.33375442781105        0.67451707518694       -0.80855328750184
C            0.12942692848503        0.57757458050947       -0.83834380629187
N            0.85627760781019       -0.27490635455880       -0.04843035577398
C            2.28521915600978       -0.12680759331638        0.01784519169158
C            3.06255583707699       -0.82707382147218       -1.12776586446079
C            4.52827108434339       -0.64787190183735       -0.87279866893230
C            5.18839807052351        0.50904987022804       -1.24258640228497
C            6.53524806687520        0.69776949544671       -0.94766013996922
C            7.23362788227345       -0.26252896476246       -0.23007262311020
O            8.51950135290093       -0.18563103556280        0.21239211400559
C            9.20902368288964        1.01001631988485       -0.00501091790905
C            6.57143898834765       -1.45464524132109        0.12941503471753
O            7.28301261530371       -2.38236327689588        0.82697524707111
C            6.62531624920921       -3.58394316072578        1.15906532119016
C            5.24934405732526       -1.63150384213258       -0.20692114858154
C            0.33865987442379       -1.61339993301485       -0.00583528293453
C           -3.94141484233426        3.15364506102499        0.55451628332760
C           -4.67046660803193        3.93251805576030        1.70292499477558
C           -3.74521036897045        4.17632779272288       -0.59957890403099
H           -5.27136149962577        1.34692043664363       -0.50643168485793
H           -7.26973945145694        0.54358138242481       -1.30574102001251
H           -7.43542716342114       -0.49295954268849       -2.77351876376424
H           -6.11714760095209        0.72508034904649       -2.63708499573217
H           -4.39220589173434       -4.34196899261371        1.36642932344016
H           -4.44841163781310       -5.04321977140185       -0.19348481997897
H           -3.13141910828563       -3.96879251155798        0.29718009886586
H           -3.43627150070564       -2.51676155392418        1.76978134630170
H           -2.85210779828455       -0.23143639204701        2.53205426219969
H           -2.53411722868895        2.23466524433124       -1.35293527210131
H           -1.20699512891633        2.71644752580894       -0.39441922514047
H           -1.64695480506530       -0.04092709262199       -0.06918819773216
H           -1.77549711519331        0.40649165877193       -1.74315381725601
H           -1.44341298843500        1.47523802547696        2.16209865107985
H            0.62234597979249        1.46884651214735       -1.12610447473909
H            2.65274629875982       -0.54093762948016        0.95447389376230
H            2.50832970537755        0.94651626251831        0.06286750363419
H            2.77506358074535       -0.39371253215064       -2.08934007289953
H            2.80894919283542       -1.88950223980668       -1.18981105486783
H            4.64558839483061        1.28515726443249       -1.76183991300660
H            7.01095509236852        1.61858473611366       -1.25345100446503
H            8.69216907209374        1.86490776443458        0.43014438939986
H            9.29754380259476        1.20643228221570       -1.10114637004765
H           10.19424215430464        0.88468672741909        0.44347727116197
H            7.37966570572816       -4.18016175223597        1.66459549482645
H            5.77901046112170       -3.42259388092461        1.83553554244908
H            6.28374350564481       -4.11873095739049        0.26404915357374
H            4.74953736420686       -2.54367083405198        0.06430329049034
H            0.03106558030287       -2.00231373250484       -0.98082423499400
H           -0.54040896029666       -1.62650710239139        0.62646035526941
H            1.09072101938424       -2.24598968408733        0.44940800897257
H           -4.58367296784672        2.32875449663684        1.02104839771740
H           -3.99013499784988        4.31658265187743        2.41142311526093
H           -5.32516538966398        3.23352038355828        2.21598140802388
H           -5.20055631017633        4.79212491071454        1.31583033537632
H           -2.78551973367069        4.65467957219812       -0.53378346493322
H           -3.77920472607739        3.74436387991605       -1.61206776908123
H           -4.41509246875358        5.03336072004618       -0.49226438251164
H           -1.65265931153159        3.20334981385979        3.55569619512453
