72
 energy: 31.583858015476 xtb: 6.6.1 (8d0f1dd)
N           -1.97891723707952        2.65276498599498        2.70951765749173
C           -1.74188861247252        2.26138430087083        1.52393007591061
C           -2.62439200769379        2.48122657196051        0.39482930249049
C           -4.14737969451078        0.57479218164328        1.47448665581438
C           -5.03158048646643        0.49451874910223        0.38761107089694
C           -5.21858472492381       -0.66355540281917       -0.35792392079727
O           -6.06653668432257       -0.81011257996234       -1.42822493900867
C           -6.89772386618366        0.24958118941322       -1.80926752846664
C           -4.48459891857559       -1.82171379767269       -0.02379322146562
O           -4.65587076397198       -2.93016235745090       -0.81114980322072
C           -4.00185129048612       -4.12122033354613       -0.36840583988294
C           -3.65804520882671       -1.76295326937789        1.08592877199945
C           -3.46573213640748       -0.58556223575311        1.80060100548496
C           -2.12574570608314        1.85992132020000       -0.86708755522936
C           -1.37352666552263        0.53219984913800       -0.74298998982580
C            0.07503145297217        0.70082876921423       -0.52727872321855
N            0.80146183699625       -0.23188427289324        0.18712069359820
C            2.22898661012793       -0.11166427396320        0.25137044313548
C            3.00224122034216       -0.78872957915397       -0.91125062300577
C            4.47288350521498       -0.60257778436616       -0.67666088558320
C            5.10247982118345        0.57359358184260       -1.04364870731507
C            6.46133414374675        0.76013430559362       -0.82097270385031
C            7.22308684026815       -0.22269217634062       -0.20860242302755
O            8.56494285026121       -0.15555508953111        0.06138694174274
C            9.23947637792969        1.04524557480122       -0.20738312336090
C            6.58370953958347       -1.42651976128949        0.17426257114615
O            7.38951467204487       -2.35610626646720        0.76602046641125
C            6.81030836074518       -3.57210624638946        1.16813517793507
C            5.23091408200370       -1.59713601530393       -0.05970594133300
C            0.30010388713542       -1.56585347088478        0.35321934384271
C           -3.61636305048341        3.39426778024490        0.36504244501275
C           -4.08927833420856        4.21757463611522        1.55546052111998
C           -4.18932784807452        3.84553270714830       -0.92112593293224
H           -5.62615727258220        1.35323987166169        0.12304949120324
H           -7.55151064954220        0.54854532256508       -0.98731683855138
H           -7.50383242950330       -0.11693153850633       -2.64340894385827
H           -6.32207912705983        1.12781538698755       -2.12081694502913
H           -4.27261453867780       -4.49624295753766        0.63202414462175
H           -4.25842289492489       -4.90430000777175       -1.07465170116037
H           -2.93577714825099       -3.91059062004376       -0.34956819177455
H           -3.14384192360079       -2.64721452246919        1.42006880770009
H           -2.79191400074361       -0.55747313958048        2.63075220435877
H           -2.93778118237304        1.77886069983681       -1.53469836546332
H           -1.47656554155165        2.63295371351048       -1.28504832139616
H           -1.78662339747868       -0.06747920763391        0.05591037828767
H           -1.59788489146526       -0.03190673971129       -1.66942431392015
H           -0.82533760746133        1.75941124829099        1.31611139531417
H            0.60647968040594        1.56339686529387       -0.88185217736124
H            2.56255100395724       -0.56037895088213        1.18997535600303
H            2.47796764537312        0.94843269247044        0.29494548381681
H            2.70730932999790       -0.34339286147061       -1.87173379265239
H            2.75412972870161       -1.85643878824792       -0.96910704417280
H            4.53361798533875        1.35262917195093       -1.52965854990705
H            6.91883223384236        1.68280602236256       -1.14299749813476
H            8.75006916886721        1.90189193517422        0.26093886598623
H            9.29771267352038        1.22384398362217       -1.29648923099017
H           10.24568536992373        0.93296292396882        0.19358479448730
H            7.61924751287531       -4.12566183634030        1.64432581615632
H            6.01240954040786       -3.42500643177765        1.89706602539359
H            6.43793870119134       -4.13897167408596        0.30966039547339
H            4.74879551299008       -2.52253870008178        0.21835635812071
H           -0.04345771516085       -1.96228942804298       -0.59781847373684
H           -0.54758841018176       -1.57727024921970        1.04397427637765
H            1.06540154859094       -2.19726287138125        0.78678763320107
H           -4.01935817661435        1.52434167966843        2.00798870558767
H           -3.45660323801707        4.23474176676731        2.41126078438009
H           -5.03727373072920        3.93432073323140        1.95804748987480
H           -4.18451067986254        5.25149299220239        1.22677890153857
H           -3.36940391979998        4.27436447272454       -1.48346752530363
H           -4.60808902772859        3.06436029551569       -1.55879628303121
H           -4.86844397971934        4.67564365203992       -0.76719532881189
H           -1.18946276837408        2.60915452489309        3.35171343175920
