72
 energy: -5.452086344644 xtb: 6.6.1 (8d0f1dd)
N           -1.55931121143690        2.83810097259727        2.28954641446731
C           -1.60448975129219        2.15795006528186        1.23471564486020
C           -2.78327687514718        2.05791596348915        0.30549908646959
C           -3.37007206487568        0.66264795646646        0.38296513304302
C           -4.34777210491808        0.27435317761143       -0.53062906290189
C           -4.86904000235558       -1.00227731611371       -0.53132371519002
O           -5.83298951168095       -1.47016806242036       -1.37848374505950
C           -6.40807167928724       -0.55778166367762       -2.27430825074427
C           -4.41261786585962       -1.93487356110548        0.42093131516195
O           -4.98751570310907       -3.16560355733223        0.34507688773788
C           -4.61796621899954       -4.10266391577935        1.31343287530619
C           -3.45636214637472       -1.54460106676658        1.33472435819633
C           -2.93471486749140       -0.25863566199205        1.31110524251262
C           -2.19292877758200        2.26711252602630       -1.12041960660452
C           -1.26413569660376        1.16742865593784       -1.65547839242543
C            0.01623255777144        1.11734358330267       -0.90235435079828
N            0.64629575252397       -0.06104230149190       -0.53997113189952
C            2.02184401767931       -0.04817776801735       -0.15553044291585
C            2.95096582782722       -0.56340585474354       -1.27767366009213
C            4.37902236912616       -0.44995086081733       -0.84899245018826
C            5.09582376404884        0.71244797593752       -1.06000806221718
C            6.40421205153152        0.83435463443798       -0.61207540583777
C            7.01943533222216       -0.21240353702831        0.05201552643780
O            8.29824851981535       -0.21008342485971        0.52417248344783
C            9.08282907354003        0.93321329596415        0.30551261806321
C            6.29541503310655       -1.40370029685254        0.27653942451549
O            6.97599662358069       -2.38542998870566        0.93160071807173
C            6.33125424265762       -3.61155097749660        1.15395082184291
C            4.99210558481473       -1.50236209171599       -0.17011591007556
C           -0.02547201818731       -1.32960036739106       -0.59028229763702
C           -3.92681307889977        3.07886761852694        0.56593329589580
C           -4.53843980262779        2.86478068451984        1.93616150471992
C           -3.43673666874389        4.51041527353985        0.47695879019786
H           -4.68348180060821        0.99388479754618       -1.25271185272956
H           -6.85919360994760        0.29189254199595       -1.75418286843236
H           -7.18597618008943       -1.11738681813232       -2.79622863345989
H           -5.67421033644171       -0.18216637238452       -2.99402482433322
H           -4.83003297884076       -3.72975522484450        2.31897898736500
H           -5.21351452227339       -4.98393726562539        1.11489567218293
H           -3.55588364393804       -4.35524952802531        1.26206136146803
H           -3.08393646932456       -2.23497600748123        2.06806946447903
H           -2.17159679090163        0.01792737662819        2.02189518847803
H           -3.01424261423700        2.39038093847942       -1.82387108727917
H           -1.60783785927924        3.17982541578310       -1.10162016835909
H           -1.78127892770159        0.21628368159405       -1.60476818727672
H           -1.07798860891805        1.38127640660461       -2.71968859482538
H           -0.73938539673120        1.62750901704072        0.79327619270350
H            0.65561997687796        1.98416139989708       -0.97145008218203
H            2.16140565088389       -0.66798826651589        0.73880253186801
H            2.30936816060316        0.97468561727518        0.09655164650129
H            2.76652057621881        0.03997200175643       -2.16489444745996
H            2.69784420984061       -1.60091542164897       -1.50745184289236
H            4.63079117737272        1.53637258458634       -1.57446493729972
H            6.93537355833086        1.75463285420471       -0.79695176035810
H            8.65205575435472        1.81580924390998        0.78865668755525
H            9.20383120337721        1.14411536955909       -0.76682591411273
H           10.05318417650006        0.71237354646384        0.74696358802363
H            7.06156516318145       -4.24013975605852        1.65725020189685
H            5.44803617302508       -3.49695179946813        1.79679224159256
H            6.02667174988698       -4.09049370629725        0.21500063602454
H            4.43162621286508       -2.40725985241405       -0.00487269595470
H           -0.21274152544524       -1.66365020429471       -1.62106480676083
H           -0.97771868726352       -1.26976677461602       -0.06239112709616
H            0.57683241849211       -2.07866490160437       -0.08485330159521
H           -4.74634708369463        2.88389636803061       -0.14681264468727
H           -3.76584087938229        2.95533602520857        2.68862589815352
H           -4.94905090472702        1.86977889929770        1.99151359635589
H           -5.33994479562414        3.58433055462105        2.10037066874816
H           -2.61643449433876        4.67960425474830        1.16567199068804
H           -3.08853026404615        4.71003855691157       -0.52759233037147
H           -4.24588188353635        5.18780581040842        0.74195400082967
H           -0.69063705621064        2.80438822405720        2.81646945548674
