72
 energy: 24.067005668035 xtb: 6.6.1 (8d0f1dd)
N           -1.91565554120487        2.58699351688711        2.63688957121915
C           -1.66615057864331        2.25446547188976        1.43673987122382
C           -2.58395782024557        2.49257187810988        0.33454110090420
C           -4.17599477212507        0.52423375190926        1.52671087636146
C           -5.06990911712780        0.48527156262277        0.45049909824011
C           -5.21901677043304       -0.64475933784299       -0.33672623337171
O           -6.05330952009567       -0.76579657018914       -1.41770453880589
C           -6.91092029078187        0.28689072565037       -1.75348193894757
C           -4.45922886974184       -1.80180189850669       -0.04743830115182
O           -4.61427338731207       -2.87695743519608       -0.88396740464410
C           -3.98854543642724       -4.09036332131544       -0.48160420573404
C           -3.63175217238121       -1.77672587233616        1.06160436681962
C           -3.47126763768066       -0.61461786106699        1.81945401271462
C           -2.12422437455756        1.86065337730505       -0.94864786160149
C           -1.37344714014425        0.53068309062595       -0.82196360092020
C            0.05118577376567        0.72817405883904       -0.47728943201218
N            0.78553633235270       -0.24717722946339        0.15146356604371
C            2.20637017415407       -0.11471725556258        0.28078943212574
C            2.99769319023160       -0.78111561237117       -0.87428416200736
C            4.46574249895268       -0.59207408642558       -0.64297305191986
C            5.08950643253093        0.58697398191439       -1.00978414621339
C            6.44705072139552        0.77541210945134       -0.78892050904518
C            7.20934431178006       -0.21059956871180       -0.18327375134763
O            8.55156409535028       -0.14161170595299        0.08070799780881
C            9.23454745134266        1.04764904895718       -0.22437992086318
C            6.57796924160980       -1.41611878511480        0.19920014569953
O            7.39216859026442       -2.34569122206484        0.77502400331410
C            6.83049009646955       -3.57033066971943        1.17109958516594
C            5.22512872244783       -1.58722352645348       -0.02949977853285
C            0.24702701941163       -1.55583606293148        0.37739403600675
C           -3.58086150914316        3.40994286831762        0.32159497911158
C           -3.99155719231477        4.26132236204686        1.51114890218468
C           -4.26594798772330        3.77511227261591       -0.94710177760370
H           -5.67447699887871        1.34660564991091        0.22593907928039
H           -7.58363248803222        0.53162879606434       -0.92836057069450
H           -7.49778773505944       -0.05847830364660       -2.60799216311410
H           -6.35820358836726        1.19239450877517       -2.02702367724679
H           -4.27765579406837       -4.48041085408087        0.50576986327235
H           -4.26081237140441       -4.84538448427932       -1.21533070063102
H           -2.91293037481962       -3.91899842412634       -0.46011923828117
H           -3.10199494508629       -2.66460292349041        1.36252997034198
H           -2.80757922715660       -0.62111557706133        2.66312953912635
H           -2.97383742794736        1.74114538585347       -1.57792543657441
H           -1.48857599413740        2.61559721047855       -1.42107483637009
H           -1.84371010927724       -0.10137225964166       -0.07557853275636
H           -1.51697230749805        0.00405830704793       -1.78877035688472
H           -0.73324336570123        1.77285028049998        1.19368476244673
H            0.60551768246734        1.58425851982081       -0.83313702993285
H            2.52290064885024       -0.56748965629219        1.22689127599385
H            2.45637807956545        0.94590974937853        0.33151194745357
H            2.69787561636683       -0.33379861224542       -1.83175605322201
H            2.75056653971812       -1.84558977505717       -0.93189762005914
H            4.51652234451511        1.36494582512317       -1.49239836621270
H            6.90226490386997        1.70032640516007       -1.10581616745775
H            8.76538259261936        1.91200748433194        0.25300848853137
H            9.26203106937990        1.21710416904407       -1.31105080240121
H           10.24808294782304        0.92880699209144        0.15520550172049
H            7.65019607703747       -4.12445056688276        1.62298137439914
H            6.04267045380158       -3.44064820004548        1.91686300813427
H            6.44566469145740       -4.13509881067649        0.31628718325901
H            4.74211303382318       -2.51083941096958        0.24938305475299
H           -0.10942373158115       -1.99141062282106       -0.55927704124970
H           -0.59561973225684       -1.51262633089672        1.07502278272241
H            0.99780736318445       -2.19698953560080        0.82619366353523
H           -4.04913382274745        1.43189042725459        2.10535501001686
H           -3.36163477141105        4.19912060200905        2.37733083220866
H           -4.98012744865031        4.05680295956759        1.86532598128086
H           -4.00297677019360        5.30198775168703        1.18715010596255
H           -3.50040393438154        4.18181216286687       -1.60456750136559
H           -4.73932096199378        2.95923320215979       -1.49946027340994
H           -4.95284089063315        4.59868567730676       -0.78141406517009
H           -1.16581703325189        2.48367357037103        3.31889503492714
