72
 energy: 11.384758710130 xtb: 6.6.1 (8d0f1dd)
N           -1.75965133032740        2.97805447030184        2.42994238601975
C           -1.77310883838672        2.18502945462525        1.45845282773948
C           -2.88389078835048        2.05165942101073        0.46434398568233
C           -3.51451756645454        0.68641012418086        0.51708845817195
C           -4.46036785620664        0.33681532103638       -0.43810017079175
C           -4.92787181217250       -0.95329275437363       -0.53817461373494
O           -5.86513035771931       -1.40384279287804       -1.42352368215027
C           -6.45832227674155       -0.43838706172613       -2.23911899057929
C           -4.46008883609531       -1.92116478120239        0.36210524355875
O           -4.97555356052316       -3.16360523543490        0.19364074347297
C           -4.52319712566355       -4.11266987709501        1.10545991033712
C           -3.55522431101478       -1.56132256461722        1.33101875368095
C           -3.06641502274867       -0.26893648080684        1.39750341529231
C           -2.15640980423263        2.19218814638610       -0.92742388782951
C           -1.27866479459103        1.09417312601484       -1.52883831466948
C            0.04907313747137        1.04034612673517       -0.88959763154414
N            0.69211777162859       -0.10838242942319       -0.45608666662013
C            2.08781323988272       -0.07458893029102       -0.13740006056097
C            2.98618508989370       -0.63080276734386       -1.26384983652024
C            4.42407787468305       -0.50282313735955       -0.86910435616730
C            5.13323661883413        0.65667203960703       -1.11493662092358
C            6.44107496080623        0.80619359420437       -0.66949677669894
C            7.06988824045258       -0.22244528560077        0.01256798793517
O            8.34779870822690       -0.20557516869968        0.48807288437861
C            9.11242924902161        0.94689681705941        0.25973034078415
C            6.35807344941621       -1.41444642564704        0.25637693058349
O            7.03728681181194       -2.38859785661323        0.92173703355867
C            6.37833758184504       -3.60511303774407        1.15612135480583
C            5.05565186157799       -1.53281414027728       -0.18070782420838
C            0.04679313512813       -1.39253145617323       -0.49736343692225
C           -4.02133439553421        3.10068318531412        0.53430019492911
C           -4.62191279901940        3.10069704775255        1.90459873667012
C           -3.50663206683042        4.47471892477849        0.24455555556516
H           -4.79826008789685        1.10191199060301       -1.10741004749393
H           -6.91455393745233        0.36090196556181       -1.65199549821843
H           -7.22844566539920       -0.97804525702726       -2.79599856808918
H           -5.73240308380201        0.01509514280823       -2.91769111829030
H           -4.72548652111950       -3.80913538190667        2.13013418684023
H           -5.04617005043762       -5.01690314191184        0.88145364256072
H           -3.44797042230423       -4.26731603878863        1.05799102124045
H           -3.18909913867354       -2.29478182139280        2.01570869651556
H           -2.29357317594356       -0.01145632701223        2.10469489976445
H           -2.90897749685186        2.39682334074344       -1.67167114720301
H           -1.47781146670352        3.01973723066546       -0.82331361426823
H           -1.76282954392723        0.14755168401923       -1.40958835710394
H           -1.22703538269232        1.29126954370901       -2.60366186933675
H           -0.91424740837938        1.58187405331362        1.16814290602311
H            0.66031164787305        1.91683265610740       -1.00306739868688
H            2.27491842219492       -0.64909824337727        0.77638868122269
H            2.37681589134427        0.96133401495741        0.05143055388610
H            2.77169573978955       -0.05113779781399       -2.15709502356316
H            2.72942378039315       -1.67213226455073       -1.46870546806638
H            4.64659986728996        1.46059967278555       -1.63541317031360
H            6.95698825637022        1.73313959534054       -0.86664172681609
H            8.65719794231843        1.82709928652570        0.72016596933524
H            9.21838397957503        1.15458472564749       -0.82237999519628
H           10.08754788292728        0.75345902121897        0.70338780048784
H            7.09994640670609       -4.23699392683310        1.66197130782376
H            5.49234828136148       -3.47702410489320        1.79842813088194
H            6.06039232813969       -4.09107896081362        0.22261355236674
H            4.50503286772949       -2.43548345786180        0.00424453684009
H           -0.17387565652858       -1.74505748325268       -1.52085799165082
H           -0.88302812955350       -1.34220195411179        0.06069595100581
H            0.65717199244898       -2.12707695359232        0.01128900532089
H           -4.88965344817488        2.68253473705261        0.02343582234940
H           -3.82253402362189        3.19520334326875        2.61849375615326
H           -5.08734430867684        2.14456793886946        2.04220601457104
H           -5.38379253745031        3.87909934547194        1.90560682997885
H           -2.63740626447471        4.70168110499515        0.84275985749878
H           -3.19504269846708        4.49677053887861       -0.79077237346199
H           -4.28007427482250        5.19020304169384        0.51419132837723
H           -0.93981462307193        2.91117174825789        3.02424822128320
