72
 energy: 14.280913427318 xtb: 6.6.1 (8d0f1dd)
N           -1.93079442947738        2.56812389894002        2.57125862100989
C           -1.63193603780290        2.30769486388960        1.36086989025179
C           -2.45823709009465        2.60721558881485        0.21344228280112
C           -4.33623582741281        0.39833907002732        1.67355477166154
C           -5.16412161977925        0.44590850068212        0.55958941005726
C           -5.21989710973986       -0.61992763447311       -0.32074360684635
O           -5.99843104966520       -0.68182290416787       -1.44001993857651
C           -6.92124124578326        0.34949198255203       -1.67617421239412
C           -4.43304039132940       -1.76718309834020       -0.07334746838093
O           -4.56395438700076       -2.77393110813562       -0.98643850795124
C           -3.96983910976695       -4.01493640962886       -0.70809039396781
C           -3.61423956155100       -1.80196790450710        1.04143405336860
C           -3.56375983392094       -0.71710193267973        1.90986430643032
C           -2.06531662777019        1.93514735100314       -1.08863372572632
C           -1.35125407801025        0.58979014681861       -0.92949461212420
C            0.03829344333553        0.75935236884297       -0.43658901287018
N            0.76092790121151       -0.26135933521475        0.13043564983877
C            2.17149713193922       -0.12428605796827        0.32147172038437
C            2.98836910309268       -0.77857182186586       -0.81629230213033
C            4.45495838294945       -0.57982544016651       -0.59223023966394
C            5.06963130851318        0.60444733503786       -0.95730283224860
C            6.42342237803263        0.80313234554613       -0.72973029068578
C            7.18539945603866       -0.18303643617493       -0.12887078739715
O            8.51985931822735       -0.10293303021306        0.13602566120228
C            9.21101077660045        1.06247688142178       -0.23207161700819
C            6.56703371373292       -1.39548501206316        0.25360684796672
O            7.39671057270472       -2.31068117728075        0.82835933476898
C            6.87480362539365       -3.55951411916980        1.20096429526716
C            5.21587578630607       -1.57300948523072        0.02455953859127
C            0.13956668885701       -1.52190159291378        0.41859263132171
C           -3.46660515651478        3.50922901142009        0.22285831668889
C           -3.93266364178296        4.23255981684551        1.44152208959041
C           -4.19820879385126        3.87501018816971       -1.03687214435190
H           -5.76918879299624        1.32294316096347        0.39493958439593
H           -7.61046647091860        0.47730475042981       -0.83488111332510
H           -7.48290632944254        0.04206075286866       -2.55744703600818
H           -6.42450274548833        1.30398157445723       -1.88317041385203
H           -4.30719738489068       -4.41793651344409        0.25300362532962
H           -4.29312718538575       -4.67885003194893       -1.50886249019455
H           -2.87550266250826       -3.95600195775644       -0.71088623379271
H           -3.01846544616738       -2.67768906901648        1.25022735125371
H           -2.92270909685485       -0.75855271631139        2.77765798903404
H           -2.96601849509708        1.75544290239696       -1.67621682028114
H           -1.43063372906649        2.61301832512167       -1.67185820869444
H           -1.93678817897802       -0.03886176749860       -0.25427955765869
H           -1.34903997361444        0.08839936472536       -1.91146192019527
H           -0.69671434025510        1.78784602977111        1.07668023196680
H            0.61083918972335        1.60639840915550       -0.77064187633223
H            2.44837655903566       -0.58362149294469        1.27608739839499
H            2.42652930251334        0.93728815892572        0.37156118251383
H            2.68539078535307       -0.32075704758222       -1.75981994041321
H            2.74941966027703       -1.84238936931777       -0.85725215514433
H            4.49631696602265        1.38372111332844       -1.43705595388995
H            6.87450453399508        1.73398341817886       -1.03494602862032
H            8.82407925433427        1.94594625746839        0.28723710673798
H            9.17377141230647        1.23209958066949       -1.31363559210301
H           10.24370186378733        0.89284850190360        0.06927145236042
H            7.71992882334551       -4.11870842231408        1.59997841261776
H            6.10763339482932       -3.46456079677465        1.97728251227605
H            6.45908517032378       -4.09878290953361        0.34280942213412
H            4.73364273870672       -2.49566379034120        0.30988812123234
H           -0.23010390945344       -2.00942652476232       -0.48988661450901
H           -0.70600820382221       -1.38067430082294        1.09763988885478
H            0.86619638519629       -2.17458130812327        0.89712237884718
H           -4.29655110940675        1.23968856220024        2.34482317112561
H           -3.24913689647618        4.07755636874661        2.27008471331899
H           -4.91241472066068        3.85446983819970        1.73422266693500
H           -4.03911735355617        5.29620003336344        1.23020080192764
H           -3.51338807139902        4.29233979546052       -1.77482502228675
H           -4.66627084376369        2.99956754173693       -1.48806991041950
H           -4.97334865602378        4.60875216230203       -0.83117758916555
H           -1.21549984634214        2.32404740332173        3.25263506493080
