72
 energy: 52.389761274914 xtb: 6.6.1 (8d0f1dd)
N           -2.08824354297412        3.17002809244592        2.63517305184423
C           -2.04348410077062        2.23098662093644        1.80677962010107
C           -2.98678685855643        2.04204189619823        0.69293728169764
C           -3.71177334396214        0.71183257542520        0.71390709290495
C           -4.63426356521830        0.42576129288538       -0.29375603057809
C           -5.03648193641463       -0.86671986437711       -0.54441108699864
O           -5.91789710309662       -1.25580488497270       -1.50328658686818
C           -6.57249448755130       -0.23956570901115       -2.18873478759543
C           -4.54791051879455       -1.90135228548121        0.26051673239071
O           -4.94596198728442       -3.15481037179699       -0.05669298188565
C           -4.37765561690588       -4.13127007636116        0.76587162564877
C           -3.72952088273795       -1.59981669435122        1.31766085294582
C           -3.28852881338192       -0.30581768491279        1.53259473001275
C           -2.05330856187943        2.08663680823249       -0.60310276396863
C           -1.30548941011406        0.92251250357001       -1.22393858380162
C            0.10797732996199        0.84717222135318       -0.87730546035518
N            0.77957098976816       -0.19446433591564       -0.28331053579897
C            2.20334384202991       -0.10979328937371       -0.08759840033301
C            3.03598535509383       -0.74579223818083       -1.22069276636299
C            4.49110526250937       -0.59531564344648       -0.89654681663431
C            5.17854432186672        0.56083351720110       -1.21028283810619
C            6.49455305893300        0.74957861574770       -0.80404246801544
C            7.14994561305688       -0.24193424796986       -0.08939162305605
O            8.42665907084089       -0.19730869658662        0.38537883870778
C            9.15731373877367        0.97342657734921        0.15871431782775
C            6.46235647870552       -1.43526287526363        0.20420925677915
O            7.14628133921918       -2.38987686981127        0.89006830975126
C            6.47584670991718       -3.59590328630145        1.15824022585909
C            5.15676829629144       -1.58860958382161       -0.19687708512738
C            0.18031286916655       -1.49886172666586       -0.30474278565854
C           -4.03077909407950        3.12923958948734        0.54320314840725
C           -4.71871166720769        3.52344277344566        1.81234358132733
C           -3.58277214319461        4.37564904860775       -0.17577106724995
H           -5.02413203744258        1.24643628779360       -0.86859246789838
H           -7.05252495171066        0.45734651400145       -1.49890484447043
H           -7.31612471542716       -0.76510107516891       -2.79154184289441
H           -5.88819206597329        0.33711007746742       -2.81332352253786
H           -4.57492424352748       -4.02034930259376        1.82396793704235
H           -4.77654406978578       -5.05441682590317        0.44940720591453
H           -3.29668414338258       -4.12869741095416        0.73056096073489
H           -3.41005930132885       -2.40733686247812        1.94017563048486
H           -2.56113745996039       -0.08908776966821        2.29614650841179
H           -2.65233615841732        2.38860549745822       -1.43068385312234
H           -1.26863641305356        2.78600863247821       -0.38979514839375
H           -1.73445881656927        0.02466926660182       -0.86653467198722
H           -1.48146851491063        0.98254109005094       -2.28171804674397
H           -1.22745656092983        1.52838084967390        1.76207490697640
H            0.66686685635942        1.72566068014298       -1.06642067823667
H            2.46900375456127       -0.59937467341068        0.84899930083262
H            2.49392891194024        0.94287052761733       -0.01075808822639
H            2.77676697839963       -0.22458710355156       -2.13903661198664
H            2.77096342520805       -1.79190905088165       -1.36401234735461
H            4.66445441810737        1.33459786480559       -1.75324795526366
H            6.98688292826460        1.68039585315898       -1.04254403152389
H            8.66849530630028        1.84370177460784        0.59842038252147
H            9.25196436662536        1.17601897834558       -0.93316767649807
H           10.13703798316898        0.81487078261680        0.60678994449819
H            7.20181085312398       -4.21947213421954        1.66603667884811
H            5.59966838247605       -3.45008378591513        1.80938495272561
H            6.14539010339238       -4.09958083220782        0.23796639536512
H            4.62529784911730       -2.49099376069147        0.02710720210017
H           -0.08528249012091       -1.86781718535736       -1.31022841790460
H           -0.72408322649156       -1.47189228270004        0.28950050696171
H            0.84230988884413       -2.19431694690111        0.18793482959172
H           -4.86620255701307        2.48145299951259        0.39897140744744
H           -3.94409789742104        3.74360955283862        2.51336916444531
H           -5.25502873770378        2.63731492603216        2.13640195331433
H           -5.41867283551162        4.31446488554572        1.48358839048387
H           -2.66052008044241        4.75399106315765        0.22128344813645
H           -3.37965964550736        4.17180103048058       -1.23483703273164
H           -4.32233763985522        5.14571960392783        0.04386504067835
H           -1.35012427406220        3.09762393790663        3.32687126276702
