72
 energy: 65.575484144582 xtb: 6.6.1 (8d0f1dd)
N           -2.17809728140655        3.21302663238676        2.68756989617346
C           -2.10940908138953        2.24485785210700        1.89427785739350
C           -2.97719657195318        2.03846598094816        0.72763323741680
C           -3.74475641792322        0.71638835611824        0.76743151014550
C           -4.68114014094391        0.44811809465876       -0.24207280308464
C           -5.07145899540166       -0.83832127128739       -0.54242036616495
O           -5.93596369667251       -1.20006664425509       -1.52519894424261
C           -6.61489259036221       -0.17375795283638       -2.16944578981399
C           -4.57294517676744       -1.89606278356671        0.22721585161974
O           -4.93166250108498       -3.14851180630459       -0.14004786021432
C           -4.32950746917200       -4.13686677950710        0.65085627730274
C           -3.78034542079916       -1.61396508967335        1.31002849275392
C           -3.35010972861274       -0.32214845948713        1.57193683593528
C           -2.01388192844607        2.05918719103147       -0.52313725402959
C           -1.31378945282191        0.85842856903811       -1.11216760120210
C            0.12071360297629        0.77258934511039       -0.87406223883924
N            0.80556831063426       -0.22050692921323       -0.22157215096841
C            2.23508987780203       -0.11854761370704       -0.06611421612592
C            3.04830569736200       -0.77809388692074       -1.20108206218147
C            4.50867626331469       -0.62052730164733       -0.90125839305252
C            5.18853405656774        0.53456790081182       -1.23596658672511
C            6.50952248184038        0.73149740778905       -0.84992353240211
C            7.17477087434487       -0.24826971244370       -0.12754515480883
O            8.45211008886162       -0.19435342442580        0.34338008696528
C            9.17150047187756        0.98287186624783        0.11924794060020
C            6.49503621340791       -1.44168562302941        0.18425192988259
O            7.18303100227476       -2.38896451890987        0.87607498412805
C            6.51229736781738       -3.59283897074741        1.15866525388127
C            5.18686956401407       -1.60474488693977       -0.20161583299297
C            0.22515824168611       -1.53299742591337       -0.23160732287578
C           -4.00854433767267        3.13457696087092        0.54042978897587
C           -4.73023929966763        3.65233194669567        1.76861906172979
C           -3.60778960560334        4.33111486652664       -0.30844837030346
H           -5.08967476045594        1.28064490452102       -0.78472987251332
H           -7.10603983025894        0.48461081156076       -1.44920952626371
H           -7.34720972028524       -0.69524795101893       -2.78851443116469
H           -5.94816853925361        0.44261483486240       -2.77565807243668
H           -4.52623525211434       -4.10364830504317        1.71471845576445
H           -4.68663617856509       -5.05891452538272        0.29128783598806
H           -3.25073857401562       -4.08327920626607        0.62124098069274
H           -3.46532297695669       -2.44171257954855        1.91065603356992
H           -2.65141438458044       -0.12145727530794        2.36469606802360
H           -2.57160678573278        2.37774046998035       -1.37164029685071
H           -1.21371670616135        2.73285974946532       -0.29034206848993
H           -1.71790709389298       -0.00545927029792       -0.65377818519112
H           -1.56695586470462        0.84620548885842       -2.15058093315632
H           -1.31849506003515        1.51575219968787        1.92710523247219
H            0.66183630081022        1.65281933281054       -1.08723998330622
H            2.52856938214153       -0.58095743823683        0.87444468301606
H            2.51160402493399        0.93996256352174       -0.01891794998267
H            2.77716527404991       -0.27952919007782       -2.12991069469366
H            2.78280722363288       -1.82665975830864       -1.32181514570793
H            4.66778784465872        1.30246129387887       -1.78342340384731
H            6.99522583031733        1.66166467397534       -1.10512477719865
H            8.67350859534584        1.84897534836894        0.55582581702012
H            9.26407420648597        1.18417302946487       -0.97458677808993
H           10.15248345896371        0.83398776991958        0.56826859904026
H            7.24340988592856       -4.21094417877071        1.66649819910077
H            5.64220443158396       -3.44213159799776        1.81485537812133
H            6.17888197841828       -4.10373699156345        0.24396771541260
H            4.66280303878316       -2.50824669285765        0.03600496197398
H           -0.05318187477344       -1.90600438961160       -1.22985704962523
H           -0.67216475663365       -1.51592160506900        0.37295354612053
H            0.91024660679799       -2.21251418393896        0.25199643974664
H           -4.81644414540808        2.43332899704546        0.54632402653868
H           -3.97949145535882        3.92509837593535        2.47498953963232
H           -5.29463771196145        2.80304626843264        2.15738604312701
H           -5.41238333466691        4.43978040551581        1.37484210039442
H           -2.67607505533334        4.75889678930004        0.01226242236071
H           -3.44707514848376        4.06653184736444       -1.36704073726668
H           -4.33819736419720        5.11853759371803       -0.11551618917261
H           -1.47027285150680        3.14721655330414        3.41034051018990
