72
 energy: 68.517578444095 xtb: 6.6.1 (8d0f1dd)
N           -2.16447919985870        2.91618500217691        2.82443211985568
C           -1.95416634954886        2.24057747915428        1.76606740199952
C           -2.69750273891236        2.37269965601988        0.52977133778860
C           -4.11574998234862        0.67769669319999        1.30002259690298
C           -4.94723734842514        0.50278551266349        0.17487232049833
C           -5.20100758625908       -0.71226204410056       -0.44918941409195
O           -6.07386490910097       -0.94161626235338       -1.48378797458250
C           -6.83892627833947        0.12761281290115       -1.97213274579202
C           -4.55113766669657       -1.85975410593853        0.04796014017730
O           -4.78140156962665       -3.04881976930116       -0.58696815310369
C           -4.07989445145581       -4.15625655532690       -0.02518887803229
C           -3.73492791595535       -1.70516162917967        1.15464263226749
C           -3.45519523881454       -0.45854406195505        1.71245526945564
C           -2.03053936455618        1.91888265087892       -0.68264245778167
C           -1.36517742438630        0.56999184775452       -0.63872306446118
C            0.10734559516987        0.59645909288587       -0.69055220667026
N            0.84931266358962       -0.26392692170339        0.08672272378758
C            2.27297320432878       -0.11321829032875        0.13319620073818
C            3.03234685643487       -0.81272774528282       -1.02349644160085
C            4.50227546004145       -0.62976479939858       -0.77961353267197
C            5.14702096636368        0.53634230586549       -1.14868434389998
C            6.50812345528399        0.71709673868459       -0.91583756726221
C            7.25152595580576       -0.26042289451305       -0.27063492340688
O            8.56046026439411       -0.17546114261212        0.10337056384485
C            9.23345286646979        1.03111181195320       -0.12104590041954
C            6.59985807354645       -1.45494813807366        0.11121067967064
O            7.35487660669404       -2.37219410526349        0.78058899987463
C            6.73012642965936       -3.57690734863546        1.16102973051878
C            5.25173600416723       -1.62192599510523       -0.15192115662130
C            0.38837836918579       -1.62918884555837        0.19574637823474
C           -3.69239740986474        3.31487564246547        0.44989349029837
C           -4.38885190852073        4.04652685308752        1.61955071728852
C           -3.94120060175120        4.04393555712053       -0.81359219609249
H           -5.48244877431915        1.36257507872847       -0.18713362629254
H           -7.42760198888449        0.56049313417889       -1.15942678717597
H           -7.49528234473293       -0.30083330909687       -2.73728925740772
H           -6.22059213953000        0.92846803235077       -2.39645010869114
H           -4.29487901992141       -4.50043925867236        1.00066728338309
H           -4.29424755416162       -4.99224044671056       -0.65424069442916
H           -3.02579526867865       -3.90925796129705       -0.02200438231314
H           -3.27995513962214       -2.58192547123056        1.58913406771889
H           -2.83978638909649       -0.34845536283404        2.57651073394156
H           -2.73548155177135        1.98041159355391       -1.47259987987225
H           -1.33634786580745        2.71473776092701       -0.87375552130540
H           -1.62374668993841       -0.02212473487999        0.24612515720633
H           -1.83594952930945        0.06352872866711       -1.47875482633613
H           -1.11978846842531        1.60002270613157        1.70989952984712
H            0.58887954760551        1.48155045260847       -1.00874617587304
H            2.64132726554665       -0.53980623770341        1.06403640183077
H            2.50285156222481        0.95671677435785        0.17705626989099
H            2.74539075079362       -0.38295340436581       -1.99225063332964
H            2.79517665520761       -1.88539289343667       -1.07914256517014
H            4.58992941361877        1.31869687813274       -1.64490777757527
H            6.97999743698325        1.63172581975508       -1.24710438908744
H            8.71766963110104        1.88130277013014        0.32543993545708
H            9.31730154064043        1.22187282383401       -1.21530143570370
H           10.22608997396624        0.91857102193956        0.31470678373359
H            7.51256151981760       -4.14785553503395        1.65996528394350
H            5.90981786346808       -3.41141861989262        1.86080483870201
H            6.37769787732322       -4.13327003254015        0.28669509908923
H            4.76775597553340       -2.54611607833985        0.12145788306575
H            0.06782909345668       -2.04777983021164       -0.75565506932004
H           -0.46754563554445       -1.67717447262891        0.86334368044204
H            1.18220635448227       -2.23655592268909        0.63181400000761
H           -4.17259702834038        1.73268957130536        1.76570808731757
H           -3.77832066570683        4.32447899931404        2.42873159548623
H           -5.17115351013318        3.54030335654394        2.14495989488312
H           -4.72213429984325        5.03165203086373        1.29936613957090
H           -3.01815148377192        4.51961405548309       -1.07611584961146
H           -4.19606825175454        3.40333238847386       -1.66067259646270
H           -4.60645344463917        4.89354886444080       -0.67570647147071
H           -1.39265812226717        2.91947650970518        3.46040514965451
