72
 energy: 38.578493622133 xtb: 6.6.1 (8d0f1dd)
N           -1.98447236324478        3.11445013687848        2.57199186745880
C           -1.96115074868117        2.21636029804144        1.69860137715201
C           -2.96742305729973        2.04504807961018        0.62776250568075
C           -3.65719250792892        0.70494170903599        0.65210709001706
C           -4.57977414575413        0.39832406955065       -0.34322523240792
C           -4.99970847704299       -0.89642347573888       -0.54379162639522
O           -5.89996111214809       -1.30998086977300       -1.47751767784817
C           -6.53107424498348       -0.30700373583555       -2.20628015111465
C           -4.51901164716389       -1.90785792510963        0.29468844708469
O           -4.95757707938832       -3.15957026972459        0.02763458475113
C           -4.42630557371075       -4.12563476324134        0.88096353324307
C           -3.67246504633543       -1.58619846506858        1.32356556673198
C           -3.21726143291278       -0.29133883638543        1.48928977254898
C           -2.09084260406534        2.11893053435287       -0.70480707504578
C           -1.29588801869141        0.98507704930315       -1.33469598265736
C            0.09085931551198        0.91899840950006       -0.87998206240304
N            0.75082100435906       -0.16616116132244       -0.34460893153114
C            2.16639480912098       -0.09937755167449       -0.10667673254547
C            3.02090253791723       -0.70888035138055       -1.23787207128557
C            4.47025772676524       -0.56572655873644       -0.88901266669777
C            5.16546065223580        0.59158840177677       -1.17987269474253
C            6.47761688921397        0.76892888346097       -0.75673001407330
C            7.12361099036521       -0.23529082899685       -0.05226558204960
O            8.40040785590336       -0.20021418823652        0.42420505000243
C            9.14256490398072        0.96409828497459        0.19574285725035
C            6.42772262605978       -1.42828995076170        0.22331259478157
O            7.10891446671345       -2.39010779978849        0.90236982595909
C            6.44054830538716       -3.59891117230259        1.15754039997451
C            5.12387258955909       -1.57037682092932       -0.19172372272992
C            0.13450256959090       -1.46315887401551       -0.37449211872855
C           -4.04516191552479        3.12238523559520        0.53387966018333
C           -4.69427731911375        3.38303699707724        1.84914762814333
C           -3.55836932450999        4.41685316609185       -0.03663686415848
H           -4.95147284361969        1.20331634277691       -0.94914695018989
H           -7.00165389649321        0.42673347210461       -1.54956274304700
H           -7.28481639592407       -0.83643128771513       -2.79379383079117
H           -5.83027761822756        0.22881952425671       -2.84863731293186
H           -4.62496098059756       -3.94170251422929        1.92960200951280
H           -4.86760547767811       -5.04555902658033        0.60186380719989
H           -3.34517416026433       -4.17577250695330        0.84112576714047
H           -3.33936637350874       -2.37025564386534        1.96671360453842
H           -2.46838094968634       -0.05973081075477        2.22862120803507
H           -2.74133448902291        2.39464201223469       -1.50594672443105
H           -1.33340621056888        2.85601756336268       -0.52057710835798
H           -1.74621551601998        0.06323011695642       -1.07070960531454
H           -1.39417187511464        1.10531593963426       -2.40396180925758
H           -1.12581867620091        1.54286745294443        1.57399111966151
H            0.66796083090104        1.79654261092335       -1.04499523340325
H            2.40474170483643       -0.61787491688131        0.82379951273607
H            2.46134605790752        0.94788560994925        0.00588084624100
H            2.77550285044281       -0.16601782152588       -2.14639687458121
H            2.75789458697149       -1.75316456208271       -1.40344439157273
H            4.65936347580363        1.37406229284142       -1.71565638698271
H            6.97738126590333        1.69941539249000       -0.97940777984625
H            8.66411289298159        1.83831291629818        0.64032465344817
H            9.23985213924271        1.16837267276448       -0.89345595058399
H           10.12095767643215        0.79487645509383        0.64250903918910
H            7.16296303337754       -4.22681814072148        1.66498291391441
H            5.55957034759347       -3.45843599208394        1.80463143666337
H            6.11346346133933       -4.09590236570970        0.23225118665126
H            4.58543588186215       -2.47230621933181        0.01861368069285
H           -0.11667720442275       -1.82791926857228       -1.38671709929629
H           -0.77771997667365       -1.42719233290807        0.20843087155174
H            0.77549690567451       -2.17325617910705        0.12597546068040
H           -4.89981219258464        2.53688854461016        0.26279241535349
H           -3.90366316726352        3.55266241736312        2.54983938142316
H           -5.20581426846875        2.46811796633262        2.10668508686899
H           -5.41523829591733        4.17853929105880        1.61838495596133
H           -2.64950939658190        4.73963671366960        0.43565640280865
H           -3.31537936625883        4.27887958989366       -1.09104074068482
H           -4.30671992102426        5.16917191207129        0.20791887224410
H           -1.21820917017118        3.03801040654718        3.23230992621980
