72
 energy: 1.117612524205 xtb: 6.6.1 (8d0f1dd)
N           -1.65297709336846        2.90755545166770        2.35706805238254
C           -1.68223047929455        2.17034265818948        1.34172903503169
C           -2.83108959761026        2.05409020331133        0.38152242571761
C           -3.43777458149119        0.67431014381541        0.44879563314454
C           -4.40072132436237        0.30501152068534       -0.48400291953840
C           -4.89568333206337       -0.97894725137242       -0.53434815479586
O           -5.84866749386125       -1.44051121172636       -1.39835967766832
C           -6.43055946608614       -0.50025041381821       -2.25567470175337
C           -4.43355551940359       -1.92811072650069        0.39297424473311
O           -4.98206609328352       -3.16437060236236        0.27175273101711
C           -4.57119382844962       -4.10692852596203        1.21204146812548
C           -3.50114720706028       -1.55227192723592        1.33288598897105
C           -2.99489932453814       -0.26299039263782        1.35267757124316
C           -2.17928490589176        2.22964702460585       -1.03152099304956
C           -1.27035843221429        1.13657981466795       -1.60335965714702
C            0.03057052745352        1.08533436473721       -0.89650725488813
N            0.66651090674667       -0.08263257816573       -0.50207867400348
C            2.05183918885286       -0.06152774165777       -0.14802839596990
C            2.96821368049858       -0.59463789271256       -1.27213493442423
C            4.40091280917378       -0.47399588905546       -0.85854594807851
C            5.11496579173258        0.68677004619088       -1.08492759333003
C            6.42248072700712        0.82195397155759       -0.63555748834548
C            7.04404324494334       -0.21691822666545        0.03629168883353
O            8.32252133665722       -0.20798929991234        0.51026467406727
C            9.09759489205187        0.93948544026902        0.28541846549866
C            6.32548604749215       -1.40852711396842        0.26826087653521
O            7.00508970201343       -2.38730969603275        0.92763946807250
C            6.35269946687521       -3.60845222995844        1.15467833774509
C            5.02285214999218       -1.51605613519351       -0.17539305766381
C            0.00802544117248       -1.35988507590185       -0.54797230891281
C           -3.98151556730898        3.08406458953357        0.54743006409636
C           -4.58174426184215        2.97397943230285        1.92300733306781
C           -3.47648387765058        4.49184810072260        0.37069583789665
H           -4.73259070956802        1.04787523488156       -1.18097985734582
H           -6.88296231500899        0.32664435883394       -1.70339141586284
H           -7.20583405292796       -1.04879477034355       -2.79535033230279
H           -5.69841929890718       -0.08669530629796       -2.95431082703790
H           -4.77717789848078       -3.76166454826928        2.22571742957146
H           -5.13215057816189       -5.00021006572534        1.00451658599747
H           -3.50180759572213       -4.31211744353569        1.16223954043072
H           -3.12625093384961       -2.26250984739905        2.04032899555751
H           -2.22278866296571        0.00500240496430        2.05698765269804
H           -2.97213932328133        2.39334304989730       -1.75203349051150
H           -1.54759298117369        3.10218325777761       -0.97247840221747
H           -1.77066097469380        0.18611012013537       -1.52868521130233
H           -1.14879125870389        1.34934680298963       -2.67475235692408
H           -0.81840002939049        1.60530685159963        0.97263539759065
H            0.65636212183171        1.95915886280575       -0.98472439159083
H            2.21500089629034       -0.66065614860846        0.75605840390584
H            2.33759836842339        0.96804785991417        0.07551726741282
H            2.76916740295458       -0.00106047841972       -2.16087933955949
H            2.71421338064339       -1.63426005154478       -1.49205771297087
H            4.63890077086808        1.50150759157012       -1.60015219282014
H            6.94629857993678        1.74595402007999       -0.82442330054902
H            8.65433720360792        1.82136132605261        0.75623611539604
H            9.21038851371577        1.14892357111731       -0.79194098741740
H           10.07040057557396        0.73283030655300        0.72834099526600
H            7.07743267587779       -4.23969817860164        1.65938441564796
H            5.46707151019546       -3.48709388951974        1.79646662947325
H            6.04095508042160       -4.09039168494937        0.21811065728331
H            4.46707675171545       -2.41978353892280       -0.00137100596278
H           -0.19587441452910       -1.70439584546850       -1.57559594497582
H           -0.93236164746895       -1.30423335998650       -0.00434261600955
H            0.61069137653861       -2.10317518242606       -0.03884876411249
H           -4.83254503017758        2.75396724093084       -0.07408006539417
H           -3.79139454835634        3.05376279535879        2.65326615590953
H           -5.02254094029233        1.99993686064268        2.01319561788017
H           -5.36189209708895        3.72756340008959        2.02140259485865
H           -2.62970792863338        4.68607256033257        1.01715028084511
H           -3.14180872855780        4.60386519358710       -0.64979721491358
H           -4.26467225372750        5.19035126184666        0.64290915517551
H           -0.80800244260470        2.85553696632173        2.91765911601522
