72
 energy: 95.704990966527 xtb: 6.6.1 (8d0f1dd)
N           -2.25886717999120        3.11801570985897        2.80126057582000
C           -2.09804374244701        2.24824774427744        1.89519869483564
C           -2.78558053459676        2.30093407370000        0.60515748581870
C           -4.08719057749641        0.73926959160779        1.16014956505665
C           -4.88803474545135        0.49375707594970        0.01768506818290
C           -5.17079518643165       -0.74725368760586       -0.51482190709072
O           -6.02147830266765       -1.01134130009994       -1.55162659384638
C           -6.77312633738065        0.04911126115687       -2.06526053068298
C           -4.59126480217896       -1.87291221698549        0.10002529221816
O           -4.85083556253171       -3.09946299810706       -0.44237682872496
C           -4.15482811284845       -4.15447561032699        0.19998405202242
C           -3.79440791519330       -1.66329573665021        1.21107882999033
C           -3.50068045594175       -0.38765281978521        1.69374706082849
C           -1.97646314718452        1.97821120078067       -0.56729799061451
C           -1.34646294295377        0.63255514201408       -0.72711373727320
C            0.12318111730551        0.56321093401001       -0.78085101742643
N            0.86152366400649       -0.28098174736620       -0.00262358727100
C            2.28641724196764       -0.12225458096688        0.05376324399059
C            3.05469226902779       -0.82554723059265       -1.09521002072591
C            4.52276382803503       -0.64337818185659       -0.84440240522205
C            5.17720489826698        0.51626650943245       -1.21530761132656
C            6.53469515021915        0.69581213767127       -0.95796577797342
C            7.24591080995229       -0.26451812341480       -0.25370194968174
O            8.53696965532891       -0.18250552576858        0.17140089330239
C            9.21913972697794        1.01824938818341       -0.04529253766559
C            6.58752735314359       -1.45676650143348        0.11650341791882
O            7.31068242729465       -2.37903300039915        0.80986885985335
C            6.66200097827182       -3.58135533106217        1.15926694624028
C            5.25864975507763       -1.63373001519832       -0.20277273649225
C            0.36333619358309       -1.62712485120615        0.06591421768201
C           -3.73319613035943        3.30153360215059        0.48022833737573
C           -4.58174131323843        3.93599281876339        1.61978886108382
C           -3.78046282499101        4.17616569604216       -0.71142420196868
H           -5.36618999119103        1.35951098647801       -0.40004850684491
H           -7.31659467532366        0.55267092706975       -1.25767504944002
H           -7.46091168400715       -0.42607025268839       -2.76703527499049
H           -6.15939017354991        0.80159727753742       -2.57746846677355
H           -4.35263358372937       -4.40791550568334        1.24693198619233
H           -4.38641650707025       -5.02866510853169       -0.34994008282424
H           -3.09463521438545       -3.94317128115603        0.19147419656336
H           -3.37357665502617       -2.53088333263818        1.69950723562004
H           -2.90534686973814       -0.25820776172580        2.57543382090841
H           -2.59440022608142        2.14793047350891       -1.42145868452123
H           -1.22678766193882        2.73002016690549       -0.58375622552278
H           -1.63770072060674       -0.02932426690770        0.07998916804631
H           -1.81219712861567        0.27167319375940       -1.62399345060753
H           -1.34745529100857        1.50399705618957        1.98810541179074
H            0.60453984537362        1.44494440223477       -1.12201395267073
H            2.66966498730033       -0.53415584923341        0.98450088819461
H            2.50618210178901        0.95111838310467        0.09874626510513
H            2.77337328282647       -0.40634958182156       -2.06832376588535
H            2.81182259817023       -1.89449818831691       -1.14943118024617
H            4.62767383092759        1.29589370181306       -1.72319293894258
H            7.01119359482593        1.61178235485301       -1.27809079339119
H            8.69986503448646        1.87044272642948        0.39202161748044
H            9.30685126636426        1.21331599084547       -1.14152700867841
H           10.20646518182715        0.89859582982872        0.40011404217188
H            7.42568871837705       -4.16896961269409        1.66321725026345
H            5.82457891158259       -3.41779602948379        1.84341958804557
H            6.31775473040103       -4.12401052530195        0.27123605316433
H            4.76636618069899       -2.54978709278360        0.07448786660397
H            0.04960532901000       -2.02449611119601       -0.90051088044427
H           -0.50796921290476       -1.65179486886753        0.70935352456927
H            1.13476398229606       -2.24660580174880        0.51253649353639
H           -4.34937672813162        1.82180522525771        1.54288205665086
H           -3.96614408154671        4.33329171606321        2.38781085866792
H           -5.25889642511591        3.29548466779863        2.17295926086376
H           -5.05612993283297        4.86453900324120        1.30274687225815
H           -2.82718331868984        4.64935781583267       -0.75704422166557
H           -3.90866353406221        3.64104414807982       -1.66259413809240
H           -4.44876692453799        5.02466185414751       -0.58502466320039
H           -1.58459656959623        3.10923765859486        3.53937612848927
