25
 energy: 15.113322914272 xtb: 6.6.1 (8d0f1dd)
C            3.19666807764010        1.45930485628584        0.13933193004467
N            2.43240162843463        0.05256793334155        0.02606183587171
C            2.65898964303649       -1.36143939548127        0.13054408030223
N            1.44879176590575       -2.05824275052409        0.01784934565097
C            0.43753593668309       -1.17134349092701       -0.02776307301101
C            1.01685251847963        0.10290369235331       -0.00663056193591
C            0.20299943117217        1.24669155809194       -0.05161199323757
O            0.57997432016742        2.41819740033680       -0.13290860254903
N           -1.19617639153552        0.96523871845216       -0.03835491783143
C           -2.07920522030440        2.11551774281928       -0.02516170055426
C           -1.78363558083949       -0.25492024864553       -0.04771199088653
O           -2.98924582842995       -0.40231942310539       -0.04997919534593
N           -0.92642914464449       -1.37614569893286       -0.05475108696255
C           -1.58285412675387       -2.66708091265537       -0.06335654434723
H            3.66031858723987        1.72368646092218        1.08980248637500
H            3.97629228579139        1.55031166982330       -0.62942848732518
H            2.41406698507598        2.20346806474090       -0.04152661429546
H            3.57434824803077       -1.90012045641338        0.01460149497019
H           -1.44024743295069        2.99226290013127       -0.07152804832172
H           -2.75011152142971        2.05728393845094       -0.85761537125642
H           -2.62175495354814        2.13640697064790        0.90577218975285
H           -1.33099759735694       -3.24572303114492        0.82724464494716
H           -1.32671755966477       -3.23254912963099       -0.96075579237399
H           -2.65855161564898       -2.47191673219804       -0.06533637979733
H            1.35454170271619       -3.06786005641736       -0.01287799941716
