25
 energy: 30.785041625428 xtb: 6.6.1 (8d0f1dd)
C            3.83840529114606        2.80436012832913        0.28106810729682
N            2.26473677661851       -0.57181983374053       -0.09213704529953
C            2.34989980690801       -1.85551677525818       -0.06960339846920
N            1.11923706021548       -2.47269835926793       -0.03610330638835
C            0.21063489008610       -1.46282701413686       -0.04316278540738
C            0.93369863249391       -0.28042522927733       -0.07269929753617
C            0.26491634998056        0.99070790453548       -0.07003571276255
O            0.77588067845102        2.08364231736958       -0.05923045430987
N           -1.13269845485683        0.84692148690960       -0.05145366221118
C           -1.92654066622988        2.06813434053761       -0.04054685698570
C           -1.86068401988911       -0.32096794729746       -0.05247880427146
O           -3.07193741237485       -0.31558817045616       -0.05156832522785
N           -1.14607762414135       -1.51794776766756       -0.05665230325970
C           -1.88071008817226       -2.76271030043732       -0.07193673967868
H            4.19676504628937        3.03467272476972        1.25887414219708
H            4.49140306287957        2.77948992115360       -0.55480864376922
H            2.80091664167069        2.69675013894456        0.07377433294713
H            3.28903020004319       -2.36756402706702       -0.04669839571233
H           -1.24541610733286        2.90523659361834       -0.16178011185218
H           -2.62115430365684        2.05675132801386       -0.87974400492219
H           -2.47138296138699        2.14799120758541        0.90111364134369
H           -1.64025644791050       -3.36741866617046        0.80385677919244
H           -1.66627135568323       -3.32850833916663       -0.97961201778755
H           -2.93837041310179       -2.50473880946953       -0.04863297293129
H            0.96933247156396       -3.46937960479299       -0.00607892599467
