25
 energy: 30.476999386765 xtb: 6.6.1 (8d0f1dd)
C            3.87409522204159        2.88647711261331        0.25882140514115
N            2.26666857409032       -0.60847579857599       -0.06709584979677
C            2.33584605207670       -1.89536378580984       -0.05469820015752
N            1.09941121642956       -2.49590894734715       -0.03268857411465
C            0.19829981546623       -1.47627827761581       -0.04140145320399
C            0.93512871922812       -0.30190101659862       -0.06006813450998
C            0.27159990044985        0.97712773086689       -0.04387604193956
O            0.78214193548572        2.07057201643102       -0.00409867130414
N           -1.12732343997950        0.83803986753980       -0.05340242425261
C           -1.91747038140574        2.06353351925104       -0.04784248867795
C           -1.86570186560580       -0.32411511942948       -0.05655455026364
O           -3.07658359427907       -0.30937499521135       -0.06405557160412
N           -1.15909706788156       -1.52632396874716       -0.05414372465188
C           -1.89425401113138       -2.77320420319866       -0.06700969166328
H            4.22129443047108        3.13178610916827        1.23749666759737
H            4.53251514459978        2.86358118273054       -0.57328827685835
H            2.84471319852572        2.72979853172758        0.06069585961212
H            3.26928036327502       -2.41759135575400       -0.04582555071587
H           -1.22831889458290        2.90267037077487       -0.12641923510757
H           -2.58159764692987        2.07114431589460       -0.91381605856702
H           -2.51022352519787        2.12437472604605        0.86809195968656
H           -1.65787704752174       -3.36789349835181        0.81735944671141
H           -1.66580485492231       -3.34819488575828       -0.96568055618315
H           -2.95361718014818       -2.51804538485911       -0.05789545104746
H            0.93374890085009       -3.48848780316813       -0.01717208655198
