25
 energy: -42.540398534244 xtb: 6.6.1 (8d0f1dd)
C            3.21685043582650        1.17396452576329        0.08505181339575
N            2.26440612852588        0.09219755303457        0.03463319585849
C            2.52922792404138       -1.22525090750949        0.03671085095073
N            1.44152328682403       -1.97960653547815        0.00796015879255
C            0.39680856283513       -1.10154338995284       -0.00947225143584
C            0.89017978603348        0.20032957992786        0.01200979072976
C            0.07594858772468        1.38584094342903       -0.00311441250678
O            0.47068117274670        2.54015604297386       -0.00009733664885
N           -1.28630059970054        1.07808009902997       -0.03077918203762
C           -2.24095656182336        2.17931803146613       -0.05109838901786
C           -1.83106516819199       -0.18958817176376       -0.04820450995951
O           -3.03099852732705       -0.35400954378908       -0.07363895378085
N           -0.95524522076397       -1.27907740596960       -0.03726812959726
C           -1.50486927985866       -2.61580551139806       -0.05969227533467
H            3.70541342909373        1.20636008259894        1.06122172015642
H            3.98061906653097        1.03669522780344       -0.68168759153292
H            2.70108748615769        2.12016657709718       -0.08024626686070
H            3.52683346667587       -1.61384914961901        0.04830407807247
H           -1.68360702092776        3.11432121856630       -0.02653094337644
H           -2.84690102860453        2.12700148279996       -0.95490721853514
H           -2.90118813245163        2.11131901498494        0.81254194192646
H           -1.18550573874621       -3.15926716698393        0.82905257798431
H           -1.16251441189539       -3.13889126393204       -0.95208695092808
H           -2.58678463913104       -2.52406376014453       -0.07320108777165
H            2.07740576527772       -3.49202878989634       -0.01595798064617
