25
 energy: 0.000000000000 xtb: 6.6.1 (8d0f1dd)
C            3.23720132972391        1.16630909158653        0.08434468864950
N            2.29877796055224        0.07527476373246        0.03981602671198
C            2.58028186251803       -1.21425391179017        0.03006175752192
N            1.43813944744728       -1.93419254010258        0.00098261751768
C            0.39035684826767       -1.05887462812143       -0.00790371763344
C            0.93510047688824        0.21347817468824        0.01709077332874
C            0.09450143016486        1.40504290868848       -0.00410946993748
O            0.49712746915594        2.54126690785742       -0.00342325656480
N           -1.25076628431515        1.06271869620815       -0.03085477937476
C           -2.21907191394203        2.15522079838987       -0.05001256521996
C           -1.81739470187490       -0.20012724136556       -0.04692818139228
O           -2.99983858926755       -0.37846413507442       -0.07008877579474
N           -0.92618577614240       -1.30210203518959       -0.03682761236648
C           -1.46982251276835       -2.64643077634382       -0.06029819901142
H            3.71247229913541        1.21471443890471        1.06488839270555
H            4.00791460421487        1.03430799217987       -0.67357688121503
H            2.69909982127087        2.09770098766290       -0.09130154035862
H            3.56654087521359       -1.63682977417947        0.04233139674524
H           -1.67107945562430        3.09322822573871       -0.02552706696334
H           -2.82428927394145        2.09428605349656       -0.95318074103337
H           -2.87644002486466        2.07745706351925        0.81450059976605
H           -1.17061985538665       -3.19584861009707        0.83242224714061
H           -1.14560246782873       -3.17511580834413       -0.95688266944647
H           -2.55549768731684       -2.55659960601237       -0.07459039105944
H            1.38130842369251       -2.94313824728853       -0.01389874052104
25
 energy: -5.346757154228 xtb: 6.6.1 (8d0f1dd)
C            3.23672281005248        1.17401937819565        0.08657575903317
N            2.30065871839361        0.09941744424114        0.03505010321316
C            2.60668430434876       -1.24256316828924        0.03240844274218
N            1.43814785023736       -1.96805257046981        0.00130325590782
C            0.40643524091200       -1.08491686619544       -0.00865101417099
C            0.91429365861293        0.21137308311031        0.01413294874398
C            0.11145442353247        1.37918068699139       -0.00562492167230
O            0.49195322944378        2.55543568085464       -0.00458940042853
N           -1.27310575872625        1.05342972322513       -0.03147750437921
C           -2.22413199211681        2.15456442656010       -0.04958671031020
C           -1.81758748867765       -0.19336822495518       -0.04751399952798
O           -3.01658395062774       -0.38141482667071       -0.07047943713209
N           -0.93884682441121       -1.30113730143308       -0.03747874728453
C           -1.47835912666615       -2.63852421502927       -0.06046047960420
H            3.71728515190042        1.22085470657219        1.06808479092727
H            4.00609167524698        1.03776126214714       -0.67569025586857
H            2.69865317410808        2.10388257224892       -0.08966968508054
H            3.58762089465074       -1.64154104309355        0.04803486416428
H           -1.66733951878400        3.08989749399624       -0.02543880505561
H           -2.83053647286671        2.10078491997080       -0.95335375476034
H           -2.88168012170032        2.08401739469291        0.81625226988817
H           -1.17216331116428       -3.18849613617802        0.83205958115806
H           -1.14729301936786       -3.16809374772950       -0.95653619657654
H           -2.56283985267090       -2.54892132668594       -0.07480271821099
H            1.47146862779870       -2.98885033410124       -0.01240741104318
25
 energy: -2.957219054089 xtb: 6.6.1 (8d0f1dd)
C            3.23300604867221        1.17442443106441        0.08648262046458
N            2.29727638588937        0.09662449573577        0.03397157089921
C            2.60973153670008       -1.24742049680026        0.03532813963737
N            1.45444136866298       -1.99736220900323        0.00149580471964
C            0.41267748655554       -1.10784944574136       -0.00963926845421
C            0.90895735991647        0.19747462484825        0.01249367326684
C            0.10828927781510        1.37144320503229       -0.00614533900712
O            0.48978162581051        2.54958398197451       -0.00432418221920
N           -1.27860100922997        1.05566360421174       -0.03170342335128
C           -2.22901919596478        2.15845712558794       -0.04964392830580
C           -1.82031980157555       -0.19061480127599       -0.04793214315636
O           -3.01982793401760       -0.37878571275485       -0.07077579948631
N           -0.94005359612800       -1.30087919620685       -0.03782889333491
C           -1.48522355903206       -2.63428001748422       -0.06033805990613
H            3.71552826337843        1.21922337547577        1.06689325342485
H            4.00213197887205        1.03880766254305       -0.67644968828865
H            2.69931829075672        2.10744458778801       -0.08788433791881
H            3.59452131186342       -1.63278747919674        0.04990362547519
H           -1.67259454516271        3.09429154513515       -0.02562488834815
H           -2.83608001130253        2.10541754011937       -0.95316402811907
H           -2.88707618040257        2.08875003320316        0.81602910009843
H           -1.17618711778086       -3.18177495270968        0.83238486604808
H           -1.15149488647105       -3.16183152315538       -0.95623412044840
H           -2.56875266167987       -2.54210614478143       -0.07462474036385
H            1.57186361503971       -3.02888545707054       -0.01080019684262
25
 energy: 0.925446488702 xtb: 6.6.1 (8d0f1dd)
C            3.22686672434519        1.17649480259039        0.08760250398582
N            2.29055969527985        0.09672704399094        0.03229438200705
C            2.60439308919672       -1.24752995216028        0.03683346079412
N            1.46868899889169       -2.02665457840910       -0.00054690390847
C            0.41666134992791       -1.13104986166630       -0.01149396535171
C            0.90129536287909        0.18307157573092        0.01104210714224
C            0.10291757317180        1.36117072725097       -0.00545131418541
O            0.48347869894839        2.54082945184197       -0.00263397727346
N           -1.28517043342746        1.05674447035538       -0.03152802818378
C           -2.23191990187847        2.16315700743730       -0.05077439334036
C           -1.82360361722564       -0.18871272434572       -0.04765687589918
O           -3.02342305414918       -0.37719279013254       -0.07069313114857
N           -0.94233782553742       -1.30127930242290       -0.03792471965423
C           -1.49332139333343       -2.63078194026556       -0.05931671292929
H            3.71255610484054        1.21753626120347        1.06667426801607
H            3.99568983040591        1.04301957597474       -0.67651783085279
H            2.69909539871055        2.11382981722619       -0.08289880022562
H            3.58923481409630       -1.62739127698050        0.04667304232653
H           -1.67292492839595        3.09790016656363       -0.02670049432065
H           -2.83827003717880        2.11176623029564       -0.95495060720118
H           -2.89112990615958        2.09601565036532        0.81429071848220
H           -1.18123637446676       -3.17682837325676        0.83300508378916
H           -1.15973591878516       -3.15707017228859       -0.95571117735666
H           -2.57574303037109       -2.53457015244854       -0.07161677804246
H            1.67279355685384       -3.06449090668168       -0.00919522207769
25
 energy: 6.326655824845 xtb: 6.6.1 (8d0f1dd)
C            3.22225398701865        1.17561346728481        0.08518136215086
N            2.28402553038736        0.09619634287513        0.03142276082121
C            2.60026825070606       -1.24670443230884        0.04187630588722
N            1.48511544245973       -2.05420208846889        0.00334195059229
C            0.42145342049660       -1.15192252807238       -0.00984997284956
C            0.89407022797746        0.17014906359810        0.01128642661145
C            0.09691140673443        1.35459208495219       -0.00459073080141
O            0.48163610291833        2.53254545407220       -0.00145889433037
N           -1.29206576502911        1.05984966852595       -0.03145521890555
C           -2.23653464264391        2.16914740488290       -0.04955011293238
C           -1.82667746896932       -0.18572781842392       -0.04864632967341
O           -3.02682151257365       -0.37450359461989       -0.07328523426075
N           -0.94364356611228       -1.30026063621002       -0.03775156041267
C           -1.49968789676354       -2.62676464972022       -0.06077723782116
H            3.71129869930853        1.21444056528893        1.06305036408652
H            3.98943849728814        1.03841885349747       -0.68060004995740
H            2.70076981749079        2.11675494143524       -0.08511452174536
H            3.58518861664463       -1.62144982964416        0.05043585198372
H           -1.67572476170113        3.10302020256707       -0.02468405301025
H           -2.84412096800519        2.12153804037296       -0.95318186828444
H           -2.89638373392787        2.10423784988763        0.81528321363844
H           -1.18726287852595       -3.17234821681623        0.83142995188088
H           -1.16262657532213       -3.15131988566584       -0.95657451803735
H           -2.58127796236201       -2.52916369597069       -0.07506997368050
H            1.77033823313974       -3.10000323345589       -0.00887965497830
25
 energy: 25.082912723802 xtb: 6.6.1 (8d0f1dd)
C            3.21685043582650        1.17396452576329        0.08505181339575
N            2.26440612852588        0.09219755303457        0.03463319585849
C            2.52922792404138       -1.22525090750949        0.03671085095073
N            1.44152328682403       -1.97960653547815        0.00796015879255
C            0.39680856283513       -1.10154338995284       -0.00947225143584
C            0.89017978603348        0.20032957992786        0.01200979072976
C            0.07594858772468        1.38584094342903       -0.00311441250678
O            0.47068117274670        2.54015604297386       -0.00009733664885
N           -1.28630059970054        1.07808009902997       -0.03077918203762
C           -2.24095656182336        2.17931803146613       -0.05109838901786
C           -1.83106516819199       -0.18958817176376       -0.04820450995951
O           -3.03099852732705       -0.35400954378908       -0.07363895378085
N           -0.95524522076397       -1.27907740596960       -0.03726812959726
C           -1.50486927985866       -2.61580551139806       -0.05969227533467
H            3.70541342909373        1.20636008259894        1.06122172015642
H            3.98061906653097        1.03669522780344       -0.68168759153292
H            2.70108748615769        2.12016657709718       -0.08024626686070
H            3.52683346667587       -1.61384914961901        0.04830407807247
H           -1.68360702092776        3.11432121856630       -0.02653094337644
H           -2.84690102860453        2.12700148279996       -0.95490721853514
H           -2.90118813245163        2.11131901498494        0.81254194192646
H           -1.18550573874621       -3.15926716698393        0.82905257798431
H           -1.16251441189539       -3.13889126393204       -0.95208695092808
H           -2.58678463913104       -2.52406376014453       -0.07320108777165
H            2.07740576527772       -3.49202878989634       -0.01595798064617
25
 energy: 22.348630908287 xtb: 6.6.1 (8d0f1dd)
C            3.21281646672390        1.16800146974649        0.08405131397350
N            2.25394875114313        0.09002767095338        0.03372911482135
C            2.50866006338335       -1.22942120576745        0.03765947301756
N            1.42227628585604       -1.98733652890708        0.01181626836119
C            0.38559606946168       -1.09485968973383       -0.00922550803441
C            0.88079694421166        0.20602412205309        0.01036118610973
C            0.06757420158199        1.39461402302289       -0.00535296397866
O            0.46222758323240        2.54694583742339       -0.00042943694241
N           -1.29228871938085        1.08625799470248       -0.03159206575359
C           -2.24672311489662        2.18696756240375       -0.04987433465727
C           -1.83842467531903       -0.18287064175809       -0.05001198467245
O           -3.03872199779376       -0.34500367275121       -0.07510202576032
N           -0.96448704867751       -1.27075142643634       -0.03882172280445
C           -1.51067582918921       -2.60944177616208       -0.06044387625442
H            3.70254314086572        1.19964354667162        1.05994953243327
H            3.97602335054266        1.03329243518277       -0.68394507000781
H            2.70105801849002        2.11715084683045       -0.07919573410565
H            3.50857158579020       -1.61512260452352        0.05145222849567
H           -1.68725451663139        3.12055564168190       -0.02511600923826
H           -2.85317082786390        2.13554429012259       -0.95321978557915
H           -2.90590784658804        2.11870602611738        0.81441417572753
H           -1.18774142673760       -3.15100808719089        0.82800312372377
H           -1.16488000445801       -3.13176741069066       -0.95178542730843
H           -2.59262847513595       -2.52272862521710       -0.07420390312844
H            2.19476799893730       -3.55144274018387       -0.01392556202318
25
 energy: 20.808721735631 xtb: 6.6.1 (8d0f1dd)
C            3.20954658850066        1.16398072688228        0.08429098272355
N            2.24510532581846        0.09039776562197        0.03419044134089
C            2.49296046933512       -1.23136114566019        0.03739222193653
N            1.40589811314034       -1.98826509828288        0.00868779775475
C            0.37660019521150       -1.08716383242694       -0.00844028388821
C            0.87299483651130        0.21325100843056        0.01089236863274
C            0.06170162326506        1.40227566204957       -0.00515345105581
O            0.45491063160829        2.55459043072906       -0.00015527798706
N           -1.29848065018052        1.09396624767016       -0.03161905187864
C           -2.25232379508097        2.19501527374233       -0.05061399831542
C           -1.84461054499535       -0.17538593998986       -0.04972028602935
O           -3.04498008696994       -0.33676427828253       -0.07522760912371
N           -0.97222507303286       -1.26325866901942       -0.03838707891026
C           -1.51602324332078       -2.60279735048434       -0.05950406704143
H            3.69992636196515        1.19542263149010        1.05982983062301
H            3.97184007129733        1.02844786279360       -0.68425579861300
H            2.70651548592927        2.11789296993617       -0.07869077939725
H            3.49254699222302       -1.61773029172821        0.05159628854785
H           -1.69281369790366        3.12837474601677       -0.02598038922078
H           -2.85883323272087        2.14488441027252       -0.95382085634959
H           -2.91213202332973        2.12865396449565        0.81318045191352
H           -1.19132675173870       -3.14379127645307        0.82884428441782
H           -1.16969709949050       -3.12460501296801       -0.95110443766935
H           -2.59768927196901       -2.51688158212192       -0.07255970525158
H            2.30531296323368       -3.61380657867081       -0.01752006978467
25
 energy: 19.932459401225 xtb: 6.6.1 (8d0f1dd)
C            3.20879422303655        1.16107833535333        0.08493276004795
N            2.23855880558748        0.09346936493223        0.03491395911633
C            2.47931678891012       -1.22991010395858        0.03629222079857
N            1.39013954228757       -1.98128853292695        0.00766144349450
C            0.36818570068638       -1.07447061242772       -0.00786112521955
C            0.86871615642896        0.22455899942690        0.01112133426837
C            0.05750033095279        1.41254766580472       -0.00605735457370
O            0.44977213673330        2.56513055235206       -0.00140682261724
N           -1.30310315498636        1.10183185042818       -0.03211288552190
C           -2.25684265317546        2.20156525899142       -0.05085772334998
C           -1.85018340197887       -0.16731082710286       -0.05000268408723
O           -3.05080488654032       -0.32745917626565       -0.07553001730073
N           -0.97951642039593       -1.25459404059481       -0.03831720389753
C           -1.52248014792056       -2.59519554966263       -0.05900590010373
H            3.69987886783122        1.19112209941526        1.06013854083725
H            3.97009439768089        1.02390435050418       -0.68429131521278
H            2.71289089853796        2.11846273192175       -0.07739894594671
H            3.47768584884957       -1.61870845707109        0.05018603302777
H           -1.69511895262345        3.13323872965281       -0.02630703649435
H           -2.86339984037387        2.15135962516441       -0.95399453703017
H           -2.91599245277710        2.13506245205952        0.81341170219009
H           -1.19791894370434       -3.13670473327026        0.82918820733215
H           -1.17663404534970       -3.11799586043168       -0.95032546091424
H           -2.60410213832354       -2.51019605887291       -0.07197031692117
H            2.42393547858446       -3.68395433577334       -0.01864057036293
25
 energy: 19.538356579903 xtb: 6.6.1 (8d0f1dd)
C            3.20875986234241        1.15798382823845        0.08449345443998
N            2.23499214567442        0.09425475723619        0.03689640680648
C            2.46688810707745       -1.23010870336007        0.03529443172371
N            1.37332095868103       -1.97181957241163        0.00579474593048
C            0.36038313045996       -1.05935884507547       -0.00772349878446
C            0.86714109171460        0.23686482264676        0.01197400304914
C            0.05540806476740        1.42367670832826       -0.00563917343411
O            0.44728516840158        2.57654868617860       -0.00075159228043
N           -1.30586281466599        1.11072305371277       -0.03183660577384
C           -2.26105087731459        2.20817647316869       -0.05073262859666
C           -1.85426286103390       -0.15822031769337       -0.04988945480980
O           -3.05499441366319       -0.31702415835556       -0.07545586270079
N           -0.98574573202518       -1.24449628468830       -0.03850919911732
C           -1.52804515625336       -2.58566606501382       -0.05930594312819
H            3.69856087191700        1.18915331318250        1.05998112419367
H            3.96862616621178        1.01979724724317       -0.68531441465459
H            2.71245673821747        2.11451361555233       -0.07998284963574
H            3.46340530050064       -1.62380106954103        0.04975364305306
H           -1.69923444390936        3.13928114655121       -0.02608928243079
H           -2.86771091643199        2.15697067243641       -0.95375436122727
H           -2.92052882386269        2.14062606793992        0.81323155290327
H           -1.20286082519762       -3.12763824918170        0.82852463575368
H           -1.18208464622083       -3.10867386204235       -0.95057794917430
H           -2.60989995371285       -2.50087455810413       -0.07205019202778
H            2.54035598640835       -3.77489691681962       -0.01587435214694
25
 energy: 19.435760418806 xtb: 6.6.1 (8d0f1dd)
C            3.21080018018457        1.15981753478344        0.08406397328363
N            2.23393005030008        0.09849781675540        0.03901883489458
C            2.45369721020843       -1.22862182223972        0.03410482728907
N            1.35453767828208       -1.95934904419035        0.00456514519492
C            0.35186192287369       -1.04122231615166       -0.00760090713032
C            0.86638753140152        0.25134804349182        0.01271525443735
C            0.05250091451264        1.43592891923598       -0.00577634469321
O            0.44350909087756        2.58924273081084       -0.00106870382110
N           -1.30923911630766        1.12062503618877       -0.03198082414743
C           -2.26607592764940        2.21615943337595       -0.05051878350206
C           -1.85926475594935       -0.14822764635993       -0.04991753021219
O           -3.05992192362974       -0.30613889997593       -0.07528896902653
N           -0.99226748664447       -1.23302526193380       -0.03834550996827
C           -1.53069877673544       -2.57632884273860       -0.05939907206331
H            3.70046041883434        1.18863817005362        1.05953027909203
H            3.96836575021202        1.01488644682928       -0.68602006307791
H            2.71604597054030        2.11701855822370       -0.08268800819221
H            3.44705992753886       -1.63124677131270        0.04965064982809
H           -1.70399566480720        3.14677098983465       -0.02596280187219
H           -2.87395043837202        2.16436226119534       -0.95292960201822
H           -2.92606515677307        2.14784455435139        0.81327506763661
H           -1.20237482336326       -3.11807272618852        0.82749928998227
H           -1.18161612685574       -3.09897329421577       -0.94973636119596
H           -2.61327400112484       -2.49563942654841       -0.07208401939060
H            2.64166940444197       -3.89175644667671       -0.01293347085237
25
 energy: 19.491768076347 xtb: 6.6.1 (8d0f1dd)
C            3.21147529802034        1.16385748319745        0.08409536799710
N            2.23150881093908        0.10562817560660        0.03945735762981
C            2.44054364785590       -1.22502963419335        0.03287325581301
N            1.33623571589905       -1.94572419293697        0.00397922372303
C            0.34309238150394       -1.02290901097677       -0.00725169945302
C            0.86502074947201        0.26603441486114        0.01354748739808
C            0.04962501799166        1.44828537397401       -0.00513983018016
O            0.44051485075605        2.60179539904392       -0.00067567586249
N           -1.31190427853053        1.13049951115932       -0.03204086604964
C           -2.26978345931738        2.22433026206491       -0.05070870071491
C           -1.86377123225607       -0.13942425749698       -0.04979851564968
O           -3.06464780142578       -0.29561729852406       -0.07550074997159
N           -0.99882815274161       -1.22224129452056       -0.03751532650688
C           -1.53352183191017       -2.56733613707629       -0.05906058717794
H            3.70120419218375        1.19221988457226        1.05972805146422
H            3.96719657130315        1.01204280561517       -0.68631781780227
H            2.71793274085931        2.12199251933218       -0.08347935172077
H            3.43064660774219       -1.63718808006971        0.04936207535886
H           -1.70631989028284        3.15386822372262       -0.02603048148605
H           -2.87823114035191        2.17199914164855       -0.95306472006505
H           -2.93048450927763        2.15554535090781        0.81289194586912
H           -1.20170044365715       -3.10891543283176        0.82659198360324
H           -1.18106261109903       -3.08961657810144       -0.94826300380215
H           -2.61715002338621       -2.49135953448897       -0.07161639509432
H            2.72370352318247       -4.02495252679707       -0.01113053232893
25
 energy: 19.618314511104 xtb: 6.6.1 (8d0f1dd)
C            3.21166179903300        1.16747221872601        0.08420678838070
N            2.22843107953673        0.11234551993234        0.03940820789267
C            2.42755186811995       -1.22143490151297        0.03184799823501
N            1.31824924790953       -1.93220590652218        0.00340681686932
C            0.33436239948824       -1.00512463940041       -0.00697517061692
C            0.86358031982955        0.28004331168692        0.01418571882205
C            0.04676024963240        1.45976846034263       -0.00470573070522
O            0.43714559572536        2.61358905757423       -0.00076815849165
N           -1.31338405208665        1.13634010769660       -0.03205019856675
C           -2.27232386852263        2.23069390342244       -0.05080566894964
C           -1.86789454168773       -0.13528265963872       -0.04954757740234
O           -3.06941467618878       -0.28658284200913       -0.07552909928339
N           -1.00533050050823       -1.21349135362107       -0.03656490361651
C           -1.53628495002046       -2.55889525699090       -0.05862422665266
H            3.70099608533110        1.19562232161585        1.06026816120267
H            3.96759015861391        1.00881329442642       -0.68497395114734
H            2.71918895206487        2.12623479845075       -0.08430820541459
H            3.41452955065325       -1.64282159123675        0.04853846787882
H           -1.70879463460970        3.16017811966441       -0.02614021443954
H           -2.88134715936327        2.17908963057409       -0.95309908757643
H           -2.93352226586534        2.16269052136005        0.81279588941411
H           -1.20026288273085       -3.09912514894761        0.82600060515856
H           -1.17942060167085       -3.07948959345409       -0.94685889570941
H           -2.62137584789570       -2.48852222509526       -0.07132603132989
H            2.78879520395442       -4.17018470175237       -0.00978840267401
25
 energy: 19.781577170907 xtb: 6.6.1 (8d0f1dd)
C            3.21274227088024        1.17203589454545        0.08439747341349
N            2.22670557472266        0.11956970713891        0.03908403691153
C            2.41919312766623       -1.21554482827307        0.03153676450227
N            1.30258525077352       -1.91727309485882        0.00275272997474
C            0.32692454337698       -0.98735055857475       -0.00711502216702
C            0.86335061075715        0.29399696243699        0.01446586450141
C            0.04594066383672        1.47131209357321       -0.00470693575016
O            0.43573484765676        2.62533509922665       -0.00116100449406
N           -1.31167670159613        1.14172842172138       -0.03225402366098
C           -2.27437955536178        2.23598813501324       -0.05090775368790
C           -1.87194921231879       -0.13084124960423       -0.04963920205892
O           -3.07366407132485       -0.27691547597585       -0.07534936267779
N           -1.01081225728931       -1.20613253253931       -0.03721292332151
C           -1.53268255940379       -2.55526309779525       -0.05867747582356
H            3.70144179096403        1.19927121324670        1.06078620428757
H            3.96994014498136        1.01012620580862       -0.68332869649931
H            2.72336226952160        2.13234331587039       -0.08428384692514
H            3.39860873875328       -1.65147312687841        0.04756418240219
H           -1.71408271967760        3.16741329010825       -0.02632138539634
H           -2.88480581548293        2.18489921604580       -0.95265590882690
H           -2.93675665916940        2.16849499586950        0.81222478698341
H           -1.19353889316427       -3.09304320496015        0.82601843723022
H           -1.17217995230236       -3.07392447334879       -0.94653333876117
H           -2.61882559292286       -2.48771854281760       -0.07125672683426
H            2.84210243899721       -4.31972201816670       -0.00967500722966
25
 energy: 19.877524620020 xtb: 6.6.1 (8d0f1dd)
C            3.21661074622947        1.17936317185054        0.08491598996282
N            2.22752900902481        0.13206013396634        0.03892909079268
C            2.42038983693087       -1.20223383652313        0.03151736607333
N            1.29960278495709       -1.89854922200098        0.00237082588885
C            0.32463718182583       -0.97011063984057       -0.00724245739504
C            0.86488689050188        0.30902543889200        0.01504813172309
C            0.04507775184865        1.48283709668112       -0.00437374354223
O            0.43112312593009        2.63797485396003       -0.00123336409315
N           -1.30906427229517        1.14548855442955       -0.03192429219390
C           -2.27286908502142        2.23699142050820       -0.05095922073925
C           -1.87537846179139       -0.12568927263226       -0.04921607966832
O           -3.07750350867832       -0.26812311243278       -0.07446842521066
N           -1.01260791181504       -1.19876854185545       -0.03751643515934
C           -1.52542532078512       -2.55279994987598       -0.05903349645568
H            3.70459934509099        1.20343674158675        1.06176956265778
H            3.97439206900898        1.01455444830512       -0.68173466710276
H            2.72731952380011        2.13873051032842       -0.08492579040930
H            3.39777349285681       -1.64163691254750        0.04617273955495
H           -1.71707787721399        3.17136381154048       -0.02647152220777
H           -2.88357324409517        2.18502068410416       -0.95250964973353
H           -2.93596593480379        2.16881121802769        0.81158508920840
H           -1.18550320942736       -3.09165094323174        0.82502736339915
H           -1.16415029687695       -3.07210260320876       -0.94640271798023
H           -2.61180249647622       -2.49063484542644       -0.07177474455410
H            2.84396129706097       -4.48018706681738       -0.01059154543352
25
 energy: 19.869177323334 xtb: 6.6.1 (8d0f1dd)
C            3.22011021847338        1.18944638845814        0.08490791760275
N            2.23080256591657        0.14628196049724        0.03899645640040
C            2.43278318399039       -1.18565869513245        0.03245621942883
N            1.31691689657353       -1.88565098008210        0.00380311507819
C            0.33393239690542       -0.96066519316308       -0.00656913455192
C            0.86775816917957        0.32100995237032        0.01610971798213
C            0.04390889171714        1.49233655759793       -0.00422252444356
O            0.42525422174585        2.64900462917131       -0.00199483308713
N           -1.30783548131562        1.14948099239078       -0.03181313048814
C           -2.27310640303163        2.23741785941376       -0.05076333729327
C           -1.87139320898440       -0.12316361656224       -0.04922902946699
O           -3.07283842005646       -0.27243968967277       -0.07473153368482
N           -1.00418109415806       -1.19464927276754       -0.03711480290271
C           -1.51634460053875       -2.54942376508304       -0.05909362415850
H            3.70761573634757        1.20959960848610        1.06189017932289
H            3.97663367741033        1.02211189140874       -0.68242152699218
H            2.72920388412944        2.14705222806896       -0.08470989183728
H            3.41074024630400       -1.62380742652222        0.04691134775518
H           -1.72073245749693        3.17357413730084       -0.02599798065052
H           -2.88026703618487        2.18012113833190       -0.95330872581413
H           -2.93258580832129        2.16340240061926        0.81289523684458
H           -1.17705362615715       -3.08924288929413        0.82466440517192
H           -1.15476630042341       -3.06977658796530       -0.94578732682517
H           -2.60322326873207       -2.49337833282207       -0.07262557455118
H            2.76985858542664       -4.62550014577825       -0.01438061848619
25
 energy: 19.809831137599 xtb: 6.6.1 (8d0f1dd)
C            3.22203063973004        1.19544394851272        0.08518908224990
N            2.23344996315094        0.15274532779509        0.03879778079280
C            2.44597961659387       -1.17621941072973        0.03252202126136
N            1.33873872425766       -1.88665282492704        0.00407860158303
C            0.34484506840829       -0.97152965308082       -0.00677261040793
C            0.86878672640198        0.31559418301631        0.01527939752840
C            0.04451058046932        1.48737054507842       -0.00443034400310
O            0.42603033849291        2.64351067696622       -0.00157443886623
N           -1.30984683476853        1.14948535255409       -0.03179185824556
C           -2.27622351880093        2.23780281970167       -0.05090144867083
C           -1.86434180438045       -0.12529575888129       -0.04899260506475
O           -3.06506844452624       -0.28161620878858       -0.07436956446598
N           -0.99444073750965       -1.19883682813095       -0.03691013846787
C           -1.51289140206070       -2.54973388506080       -0.05880690126971
H            3.70865163616292        1.21193055009107        1.06252176904716
H            3.97817819120848        1.02528039538706       -0.68174649844893
H            2.73353462571284        2.15405813385112       -0.08426015949146
H            3.42453103750307       -1.61350449203792        0.04698019378910
H           -1.72488219766442        3.17525731136817       -0.02641332795257
H           -2.88439000183087        2.17943950140923       -0.95337430839580
H           -2.93665318317472        2.16274488248790        0.81265067883235
H           -1.17463486582187       -3.09008062699331        0.82494048251106
H           -1.15280984356698       -3.07058050952306       -0.94575554270465
H           -2.59958316657275       -2.48940202338995       -0.07204861658678
H            2.63871315755820       -4.64818261793163       -0.01777773235844
