25
 energy: 0.000000000000 xtb: 6.6.1 (8d0f1dd)
C            3.23720163006194        1.16630919979326        0.08434469647475
N            2.29877817382611        0.07527477071623        0.03981603040599
C            2.58028210190900       -1.21425402444508        0.03006176031096
N            1.43813958087363       -1.93419271955128        0.00098261760884
C            0.39035688448383       -1.05887472636071       -0.00790371836672
C            0.93510056364412        0.21347819449412        0.01709077491437
C            0.09450143893243        1.40504303904423       -0.00410947031874
O            0.49712751527797        2.54126714362870       -0.00342325688240
N           -1.25076640035757        1.06271879480407       -0.03085478223738
C           -2.21907211982101        2.15522099834493       -0.05001256985998
C           -1.81739487048744       -0.20012725993278       -0.04692818574614
O           -2.99983886758376       -0.37846417018721       -0.07008878229737
N           -0.92618586207120       -1.30210215599479       -0.03682761578324
C           -1.46982264913417       -2.64643102187190       -0.06029820460571
H            3.71247264356769        1.21471455160235        1.06488849150277
H            4.00791497605742        1.03430808813993       -0.67357694370751
H            2.69910007168542        2.09770118228144       -0.09130154882931
H            3.56654120610678       -1.63682992603973        0.04233140067262
H           -1.67107961066214        3.09322851271934       -0.02552706933167
H           -2.82428953597071        2.09428624779827       -0.95318082946668
H           -2.87644029173232        2.07745725625962        0.81450067533302
H           -1.17061996399332       -3.19584890659852        0.83242232437030
H           -1.14560257411436       -3.17511610292205       -0.95688275822323
H           -2.55549792440841       -2.55659984320617       -0.07459039797972
H            1.38130855184625       -2.94313852034425       -0.01389874181052
25
 energy: -2.331881975410 xtb: 6.6.1 (8d0f1dd)
C            3.23293876324882        1.17734090698527        0.08605200639674
N            2.29589830194745        0.09312973189369        0.03781739321655
C            2.59837921554383       -1.23282865480960        0.03089230887692
N            1.45584891177767       -1.98337247840443        0.00090304509354
C            0.40289618827559       -1.08526011693214       -0.00859088460657
C            0.92005843568731        0.20981824141548        0.01501156131054
C            0.09443840544334        1.39572022818527       -0.00495867104940
O            0.49288548814491        2.56189993097272       -0.00342529187257
N           -1.26840930905979        1.06131990946712       -0.03124451214635
C           -2.22948454653943        2.16259316749084       -0.04999249878142
C           -1.82550265462050       -0.19227658272223       -0.04775564727753
O           -3.02306305344182       -0.37057589456165       -0.07125723840834
N           -0.93576927014476       -1.30110094304778       -0.03734017619226
C           -1.48501071325168       -2.63294223575167       -0.06013016611380
H            3.71516024795442        1.21969017573899        1.06651918206373
H            4.00071158069851        1.03797444132394       -0.67673514264946
H            2.69855387265966        2.10961197425399       -0.08812009807792
H            3.57786769922613       -1.64345567818757        0.04446254421851
H           -1.67369771841376        3.09804118720834       -0.02553043206533
H           -2.83820485019664        2.11353075961987       -0.95291542347723
H           -2.89047660203685        2.09683080426466        0.81413349067670
H           -1.17674190996438       -3.17856715954751        0.83264603538185
H           -1.15237792865387       -3.15830562857303       -0.95638627075953
H           -2.56991200265762       -2.53569978983458       -0.07399808274686
H            1.49522811630966       -3.03408769427593       -0.01302313486322
25
 energy: 5.163329980152 xtb: 6.6.1 (8d0f1dd)
C            3.22653715215731        1.18277299215145        0.08723415144463
N            2.28731589471426        0.10636665164513        0.03411943513087
C            2.60939873962226       -1.24407574436918        0.03271230589304
N            1.47387480430924       -2.03324797713420        0.00134294703932
C            0.41359803387852       -1.12027601427441       -0.00963054937696
C            0.89946236196726        0.19587488096100        0.01209342211701
C            0.09367948971257        1.37379273176136       -0.00584453022930
O            0.48330107039484        2.55607369237721       -0.00313510212522
N           -1.29199296023700        1.06503149649364       -0.03176705628416
C           -2.24153163614814        2.17724750208957       -0.05002111925174
C           -1.83099036240680       -0.17898021618427       -0.04870235952737
O           -3.03485602514317       -0.36222485788029       -0.07289779708504
N           -0.94752215794156       -1.29403179752449       -0.03794446264546
C           -1.50650589147478       -2.61425929367610       -0.05991568496258
H            3.71722118705773        1.22221988282582        1.06602334471443
H            3.99173427719213        1.04284182085749       -0.68056611411171
H            2.69852078991479        2.11942859487314       -0.08229773736230
H            3.58735066923063       -1.63864691803880        0.04782456927394
H           -1.67582989202827        3.10834457837418       -0.02546679360970
H           -2.85413827766128        2.13951501755603       -0.95221638538416
H           -2.90641440285836        2.12291499318943        0.81326956871939
H           -1.19128901289299       -3.15914611315818        0.83161331578579
H           -1.16805267326770       -3.13966572148825       -0.95468760793969
H           -2.59047753155056       -2.51185061911185       -0.07316589331626
H            1.66982102139529       -3.12699096014340       -0.01093997075949
25
 energy: 9.903058370387 xtb: 6.6.1 (8d0f1dd)
C            3.22302949135563        1.18249448251197        0.08719770886422
N            2.28496252166581        0.10531305547985        0.03207084672781
C            2.61089544430507       -1.24624423441947        0.03384424221407
N            1.48277379787463       -2.04972241255951        0.00183638612077
C            0.41820805943816       -1.13621214766887       -0.01023849765713
C            0.89437973148671        0.18502086084034        0.01094071323429
C            0.09357537400777        1.36382462501819       -0.00596983312900
O            0.48049672329671        2.54466877125257       -0.00281805841368
N           -1.30133239989383        1.07065647667836       -0.03212077511348
C           -2.24690153144000        2.18558184492603       -0.05020247921454
C           -1.83229558540490       -0.17422265849199       -0.04935400165058
O           -3.03480172412277       -0.36444763095914       -0.07412623033980
N           -0.94913944290778       -1.28952545353087       -0.03821099618539
C           -1.51769642446105       -2.60643873275628       -0.05966533136345
H            3.71603660839635        1.22140759873268        1.06478077678207
H            3.98627226826016        1.04751889169428       -0.68322135446366
H            2.69640089237542        2.12185457765994       -0.07786846034791
H            3.59352236085201       -1.63302107223429        0.04964595118454
H           -1.67851169519785        3.11475290829358       -0.02552148961904
H           -2.86097771708993        2.15133335241242       -0.95177162055606
H           -2.91317546675775        2.13469616156307        0.81247666892747
H           -1.20353039794536       -3.15197711432833        0.83161730902337
H           -1.18117311032668       -3.13312909129308       -0.95420783055414
H           -2.60138705743393       -2.50004645211580       -0.07242861965607
H            1.75258394760364       -3.15510800453366       -0.00965112866741
25
 energy: 10.715009293295 xtb: 6.6.1 (8d0f1dd)
C            3.22216928792949        1.18106058826213        0.08703579130360
N            2.28551826753368        0.10173283181759        0.03125400039163
C            2.60858395134615       -1.24590745241841        0.03451036117693
N            1.48363607554609       -2.05107679501387        0.00217997726203
C            0.41868270706009       -1.13935542359982       -0.01048356386691
C            0.89521846269160        0.18103758685044        0.01061461059930
C            0.09409775093952        1.36227274789193       -0.00596994257789
O            0.48088468433672        2.53965013321905       -0.00249452223787
N           -1.30261591992798        1.07373039499944       -0.03228746442716
C           -2.24786859629703        2.18765773177913       -0.05033486283064
C           -1.83274374594149       -0.17323509898600       -0.04965364136102
O           -3.03335955283233       -0.36678930559515       -0.07470359282665
N           -0.94825484147030       -1.28721397149601       -0.03824117918659
C           -1.52023855973190       -2.60484311004085       -0.05948294105763
H            3.71506324033866        1.21986617221439        1.06421394561848
H            3.98438997647106        1.04956138548145       -0.68445990870388
H            2.69437233398343        2.12068806441898       -0.07598743598197
H            3.59384013777823       -1.63029039520031        0.05005096439184
H           -1.68005708931655        3.11677595939296       -0.02562016650543
H           -2.86199331573398        2.15305917289381       -0.95182299831545
H           -2.91411619018933        2.13639251098809        0.81232800321020
H           -1.20733437928679       -3.15055939002999        0.83184363428489
H           -1.18543197352702       -3.13194005318942       -0.95415150778005
H           -2.60382010390255       -2.49757385020776       -0.07203308684683
H            1.77359206013872       -3.15567183225976       -0.00927057758566
25
 energy: 10.548906641313 xtb: 6.6.1 (8d0f1dd)
C            3.22194678868533        1.18006570748483        0.08693984331529
N            2.28638137963234        0.09914620636412        0.03072301479952
C            2.60613433647364       -1.24555417753739        0.03528063972073
N            1.48214387070525       -2.05009312295522        0.00250909760045
C            0.41793202354302       -1.13949151852978       -0.01066804359794
C            0.89635631524146        0.17975763090758        0.01035305514173
C            0.09467421506842        1.36236875529370       -0.00607095579786
O            0.48163395412487        2.53803766754914       -0.00222224035403
N           -1.30206357375240        1.07463722037322       -0.03238709759994
C           -2.24744509320341        2.18764645825910       -0.05037544696459
C           -1.83327489426536       -0.17308305634001       -0.04978832946787
O           -3.03284128411527       -0.36744758621642       -0.07495506109036
N           -0.94785154727688       -1.28608594053912       -0.03822273458233
C           -1.52027964621854       -2.60485672515162       -0.05940512919556
H            3.71463122874103        1.21866620486563        1.06395448112648
H            3.98376625666314        1.05027231375421       -0.68495292238304
H            2.69284886778763        2.11922765464538       -0.07527422482375
H            3.59245544418419       -1.62915714373001        0.04993225413924
H           -1.68054512516852        3.11720387209962       -0.02566272234780
H           -2.86159835889867        2.15261425408409       -0.95186773652119
H           -2.91362249432131        2.13591904591310        0.81237093646041
H           -1.20735890958964       -3.15017362090200        0.83195188979139
H           -1.18570757707759       -3.13157201388657       -0.95418600739993
H           -2.60380243129880       -2.49793633946625       -0.07185360214942
H            1.77770092227225       -3.15108314416730       -0.00908906167235
25
 energy: 10.317581140671 xtb: 6.6.1 (8d0f1dd)
C            3.22189926183052        1.17985309721164        0.08692237724323
N            2.28680126384210        0.09841741556833        0.03039703507870
C            2.60516471392148       -1.24569544094316        0.03601066034511
N            1.48096331623695       -2.04986567877570        0.00274444019867
C            0.41740857444785       -1.13921477185386       -0.01080302275337
C            0.89666210131563        0.17981702898858        0.01014794362542
C            0.09494227763261        1.36250022012935       -0.00616687512799
O            0.48189421338354        2.53819075126552       -0.00213354249467
N           -1.30161303291981        1.07439947728434       -0.03242520282904
C           -2.24698419879659        2.18728059221010       -0.05036701860305
C           -1.83359580649725       -0.17309836027140       -0.04980395301954
O           -3.03301506019902       -0.36721537818275       -0.07497528596905
N           -0.94798052277759       -1.28586010401826       -0.03819874451891
C           -1.51990626867269       -2.60511234340142       -0.05940762612430
H            3.71456594003086        1.21829622692399        1.06391555095233
H            3.98376955464483        1.05039014178144       -0.68497379002249
H            2.69223658155247        2.11864129435874       -0.07517355209110
H            3.59160126425734       -1.62923630562089        0.04952610071733
H           -1.68040206269304        3.11708309396181       -0.02565621310845
H           -2.86122595767812        2.15224644563308       -0.95185313367847
H           -2.91319239859625        2.13553203561584        0.81241420994518
H           -1.20657030057505       -3.15013617994000        0.83192392532850
H           -1.18499082147726       -3.13148093310765       -0.95421218388150
H           -2.60341751242369       -2.49860425360263       -0.07182605942190
H            1.77719954814635       -3.14809946904306       -0.00899214364337
25
 energy: 10.103346990414 xtb: 6.6.1 (8d0f1dd)
C            3.22185101984332        1.17980884394754        0.08694692761567
N            2.28709730657957        0.09811894954372        0.03002657648998
C            2.60461784566753       -1.24607585094548        0.03715385122654
N            1.47998056158275       -2.05015521072246        0.00304558457618
C            0.41707654623008       -1.13900913743388       -0.01098880674467
C            0.89671235148912        0.18011058741127        0.00990313340129
C            0.09511971430819        1.36250350518794       -0.00627431439350
O            0.48193788728709        2.53857666546889       -0.00213196426787
N           -1.30134225696691        1.07398279980554       -0.03246119162368
C           -2.24662291509504        2.18698722096172       -0.05035817443334
C           -1.83382537748413       -0.17312086129094       -0.04979006973011
O           -3.03329851607359       -0.36691973084964       -0.07492495878534
N           -0.94819415993395       -1.28583939025517       -0.03816658309719
C           -1.51959890650976       -2.60532587746246       -0.05942574022474
H            3.71453052522045        1.21814581880571        1.06395449573994
H            3.98391152825193        1.05049004370638       -0.68485913859126
H            2.69182496300138        2.11828644908826       -0.07514134655224
H            3.59102863656987       -1.62966473807710        0.04864379563030
H           -1.68011034228452        3.11689788170097       -0.02564523606512
H           -2.86094874489629        2.15206314726451       -0.95183071820508
H           -2.91287364146080        2.13533169713946        0.81243800495024
H           -1.20588794209813       -3.15016861727219        0.83186306659383
H           -1.18433906978597       -3.13144965608663       -0.95423107804085
H           -2.60311220725289       -2.49913175693366       -0.07182704288717
H            1.77667986174691       -3.14541418053026       -0.00888517643452
25
 energy: 10.028617482407 xtb: 6.6.1 (8d0f1dd)
C            3.22183306533471        1.17985557836103        0.08702790044207
N            2.28710100795044        0.09826517163566        0.02982067759676
C            2.60471372983173       -1.24639195690965        0.03851058275688
N            1.47980792415220       -2.05070825567531        0.00331932816621
C            0.41714602869663       -1.13900948541184       -0.01117631440270
C            0.89656977588432        0.18029687461394        0.00974573082299
C            0.09511716203938        1.36239840996464       -0.00635998730840
O            0.48177033836190        2.53874152114795       -0.00224223440912
N           -1.30142078590338        1.07380048655645       -0.03249521970196
C           -2.24662417895090        2.18699758980044       -0.05036581951331
C           -1.83379100336111       -0.17314691729395       -0.04976754982229
O           -3.03338759386230       -0.36691043788682       -0.07483131081927
N           -0.94826040123170       -1.28599586196776       -0.03815746135721
C           -1.51961179799928       -2.60534366207401       -0.05944344464689
H            3.71448782937768        1.21822433360572        1.06408481496175
H            3.98407373501557        1.05053207934432       -0.68467531959664
H            2.69184601235674        2.11831237513058       -0.07514758674309
H            3.59107432762371       -1.63003114531544        0.04730114102044
H           -1.67991385451238        3.11679895104875       -0.02565177190840
H           -2.86094077022088        2.15215147778596       -0.95183707275052
H           -2.91286731767668        2.13541065357864        0.81242944943883
H           -1.20591326385613       -3.15025184004346        0.83183589102951
H           -1.18434209776186       -3.13152080897053       -0.95424073177598
H           -2.60313307741182       -2.49910003125658       -0.07184606021818
H            1.77687987405960       -3.14434649759670       -0.00880373511416
