25
 energy: -42.132163680940 gnorm: 0.002302315223 xtb: 6.6.1 (8d0f1dd)
C            3.20129909410093        1.16810060045867        0.01837473861467
N            2.20663450630446        0.13315417131362        0.00099523848290
C            2.42129407983247       -1.20260216484358       -0.00391402424346
N            1.30949518060027       -1.90364026078167       -0.00408326210620
C            0.30911088963482       -0.99603903109107        0.00196731738803
C            0.85445260030321        0.29774419458232        0.00615827161111
C            0.02493789320377        1.47808521587541       -0.00217829486629
O            0.42074306042269        2.62164896775662       -0.01405525153651
N           -1.33033780045052        1.14904201352927        0.00175287394807
C           -2.28573073916288        2.24213806231943       -0.00221335257167
C           -1.89217759166092       -0.12280728848030        0.00369034611747
O           -3.08497516814592       -0.27917394107452        0.00546282303459
N           -1.01838654800642       -1.21611536328986        0.00227729103990
C           -1.55802068741988       -2.55396513299823       -0.00077870542863
H            3.70955703575521        1.18637505202513        0.98472152344285
H            3.94219242054858        0.98774653033667       -0.76064776078117
H            2.71961652066042        2.13148793882334       -0.14581038794545
H            3.39828027317077       -1.64536812199892       -0.00837305829512
H           -1.73354870105355        3.18016886986981        0.00504974516788
H           -2.91858741674862        2.18231993578572       -0.88947117273949
H           -2.93254308326721        2.17540652625886        0.87426336823046
H           -1.20676911187065       -3.09662720244126        0.87744935379472
H           -1.22326877861667       -3.08651068788737       -0.89173982731340
H           -2.64482611556402       -2.48647189128609        0.00910805530557
H            2.47198970152967       -4.52585845116198       -0.03683423045081
