25
 energy: 0.000000000000 xtb: 6.6.1 (8d0f1dd)
C            3.23720132972391        1.16630909158653        0.08434468864950
N            2.29877796055224        0.07527476373246        0.03981602671198
C            2.58028186251803       -1.21425391179017        0.03006175752192
N            1.43813944744728       -1.93419254010258        0.00098261751768
C            0.39035684826767       -1.05887462812143       -0.00790371763344
C            0.93510047688824        0.21347817468824        0.01709077332874
C            0.09450143016486        1.40504290868848       -0.00410946993748
O            0.49712746915594        2.54126690785742       -0.00342325656480
N           -1.25076628431515        1.06271869620815       -0.03085477937476
C           -2.21907191394203        2.15522079838987       -0.05001256521996
C           -1.81739470187490       -0.20012724136556       -0.04692818139228
O           -2.99983858926755       -0.37846413507442       -0.07008877579474
N           -0.92618577614240       -1.30210203518959       -0.03682761236648
C           -1.46982251276835       -2.64643077634382       -0.06029819901142
H            3.71247229913541        1.21471443890471        1.06488839270555
H            4.00791460421487        1.03430799217987       -0.67357688121503
H            2.69909982127087        2.09770098766290       -0.09130154035862
H            3.56654087521359       -1.63682977417947        0.04233139674524
H           -1.67107945562430        3.09322822573871       -0.02552706696334
H           -2.82428927394145        2.09428605349656       -0.95318074103337
H           -2.87644002486466        2.07745706351925        0.81450059976605
H           -1.17061985538665       -3.19584861009707        0.83242224714061
H           -1.14560246782873       -3.17511580834413       -0.95688266944647
H           -2.55549768731684       -2.55659960601237       -0.07459039105944
H            1.38130842369251       -2.94313824728853       -0.01389874052104
25
 energy: -5.847963389461 xtb: 6.6.1 (8d0f1dd)
C            3.22510858698726        1.20449665403796        0.10760746104722
N            2.31946641702378        0.10134131489456       -0.00350140395115
C            2.61138344395400       -1.25544525531716        0.03607842322994
N            1.41845866824528       -1.94568956382345        0.00412247547288
C            0.39950277319300       -1.07300418897207       -0.04863419985895
C            0.92822525534933        0.21344418436380       -0.08159596355795
C            0.12709014186439        1.35954780407829       -0.15461937574728
O            0.48178020595598        2.54364179809953       -0.19339886574121
N           -1.26627753803713        1.01210235752281       -0.06623243070831
C           -2.17484601656573        2.14119478295903       -0.02022213422729
C           -1.82616948360287       -0.21985745465753       -0.03820519488412
O           -3.02650158029924       -0.40158652312202       -0.03372717382183
N           -0.94370566270988       -1.31757045601962       -0.04175835818917
C           -1.48738288016899       -2.65348509396369       -0.06602503802980
H            3.68202524926630        1.27244847640031        1.10379120653051
H            4.01454879196949        1.11065902185664       -0.64187440408254
H            2.65190921859398        2.11390747082565       -0.07355093554490
H            3.57866545572283       -1.70271967889151        0.04728708722667
H           -1.57211704075557        3.04320952713359        0.03214128960081
H           -2.75691695957010        2.18919204249281       -0.93542991388356
H           -2.83460353878169        2.06317657858306        0.84266650023915
H           -1.17870245835791       -3.21999451750297        0.81600596812811
H           -1.17069318190511       -3.17999556246115       -0.96904006206481
H           -2.57214364638354       -2.54659553526766       -0.06753372302712
H            1.34049000373752       -2.94804098413611       -0.00605067459039
25
 energy: -2.973699820429 xtb: 6.6.1 (8d0f1dd)
C            3.19616466469134        1.23085404819041        0.13418837297145
N            2.32756717491140        0.09587304035133       -0.01822814384240
C            2.61744750019465       -1.27746351069300        0.04834869478960
N            1.40991239582378       -1.95423417772479        0.01467314914529
C            0.39420683119298       -1.08530193666192       -0.07432345648049
C            0.93472010864869        0.19577561363467       -0.14898372310416
C            0.13344931648062        1.32784628011488       -0.31643457902884
O            0.46170143947326        2.51633233512674       -0.41356821369211
N           -1.26473903120267        0.98108575486027       -0.13710799216756
C           -2.12489497967294        2.14020706825686        0.00955382738207
C           -1.83072670638658       -0.24187753934325       -0.02827637232181
O           -3.02966055198841       -0.42155021519976        0.03298661180965
N           -0.94957728950234       -1.33726801892913       -0.05483545056914
C           -1.50395180164653       -2.66809970634317       -0.07212819791435
H            3.61936981412064        1.32280759516371        1.14421979040445
H            4.01209254431764        1.17842451236862       -0.59632005293458
H            2.59998751227828        2.12311086810623       -0.05695080046735
H            3.57455400621784       -1.76020111373293        0.07003652259517
H           -1.47960909172075        3.00687441080737        0.10212968696877
H           -2.69457476133504        2.30040529901236       -0.89928775059460
H           -2.78537507785531        2.04612098303276        0.87010304717493
H           -1.19265812607811       -3.24520033524392        0.80209180382924
H           -1.19717994073788       -3.18958298119992       -0.98065693933004
H           -2.58771894394793       -2.54325275189346       -0.05841567556382
H            1.30630035495239       -2.95372415708164        0.00992252873440
25
 energy: 1.407042258093 xtb: 6.6.1 (8d0f1dd)
C            3.16092792376567        1.25233856896235        0.15503098906866
N            2.31623829259382        0.09141150005281       -0.06483633818184
C            2.61677725002807       -1.29279101135136        0.07032263861929
N            1.40027432994866       -1.96381540001495        0.02952260234427
C            0.38749430956976       -1.10141661594558       -0.12531519186834
C            0.92814668063651        0.17546668721794       -0.26210346321045
C            0.13501317645173        1.30351728485489       -0.48445327714248
O            0.45046584562815        2.49035184904943       -0.62353956873838
N           -1.26700424076141        0.97074637550450       -0.21779788931713
C           -2.07244250010309        2.14609911144353        0.04208530154434
C           -1.82897591252105       -0.24970462607764       -0.02394209445331
O           -3.02432423042747       -0.43358421807631        0.09837979465682
N           -0.95192329429588       -1.35402172794626       -0.06911533427940
C           -1.51435641498785       -2.68325463372855       -0.07646541824019
H            3.55265309893045        1.36377659250071        1.17958187623871
H            4.00767615816356        1.23957262771835       -0.54814977569316
H            2.55242518342013        2.13328499345828       -0.04473102043615
H            3.56874110689907       -1.79803821879470        0.05452261585974
H           -1.38539546658196        2.97192451979008        0.17524296366657
H           -2.62421587147069        2.40496773965477       -0.85165449452415
H           -2.73295639484423        2.02931366998387        0.90051158168694
H           -1.20405175017172       -3.27001469115475        0.79063017569251
H           -1.22180010919860       -3.20230777972945       -0.98987445561040
H           -2.59743550141169       -2.54838102997769       -0.04734637072531
H            1.27417332189303       -2.96037013532865        0.03309855230637
25
 energy: 6.307383229336 xtb: 6.6.1 (8d0f1dd)
C            3.11926368415887        1.27812043997159        0.17885419920577
N            2.28465488181768        0.10000735565463       -0.07655250190738
C            2.60173607986970       -1.27125891021093        0.08310115325731
N            1.39957395056526       -1.96503259013674        0.05189070077317
C            0.37779131372481       -1.12159697611885       -0.16740142486282
C            0.91063722032866        0.15334675418125       -0.36065706609684
C            0.12623720623509        1.27285946922736       -0.64411421670915
O            0.43216731173263        2.45374602334612       -0.82777060620116
N           -1.25784529604034        0.94158324324541       -0.27995218044493
C           -2.00721857753711        2.14004889178638        0.07551849405880
C           -1.82271331029959       -0.26805748599468       -0.03225286445144
O           -3.01359233490178       -0.44442228913378        0.15415809957769
N           -0.95639528708702       -1.38009090889783       -0.09118165575616
C           -1.52785407289211       -2.70391664054767       -0.07543623122223
H            3.48740456382955        1.40673194352059        1.21427781745985
H            3.98990729613027        1.29445528958450       -0.50297043190113
H            2.50306994412822        2.14870923254394       -0.03154207967934
H            3.57030302184836       -1.73278151335893        0.08497926182080
H           -1.28931110555900        2.92962486556086        0.24689319957810
H           -2.52722480009462        2.46749780812979       -0.80490743044345
H           -2.68099694678145        2.00174305378591        0.91898195469047
H           -1.21592577042436       -3.29417376579201        0.78773161280242
H           -1.24746962443090       -3.21777963369728       -0.99609813055759
H           -2.60822360101675       -2.56010105093423       -0.03169966466283
H            1.26807232630706       -2.96287633132929        0.06273933732107
25
 energy: 11.318829655355 xtb: 6.6.1 (8d0f1dd)
C            3.07110813594294        1.30600472337456        0.19531923968237
N            2.24309221554269        0.11888882660132       -0.09264370227948
C            2.58712115536082       -1.23361008025880        0.08771443613636
N            1.41194514835343       -1.96625890687462        0.04341976223616
C            0.37289633006167       -1.14959218850711       -0.21320818366493
C            0.88151019112524        0.12761488202653       -0.44528618041481
C            0.09805280521729        1.22781602433094       -0.78898992818350
O            0.41853881646007        2.39883029004660       -0.98776200418598
N           -1.24777511602175        0.92663343590035       -0.33896189320685
C           -1.94230686237732        2.14099600439372        0.09396264463462
C           -1.80658989436046       -0.27730230869065       -0.03090989259492
O           -2.99191004190758       -0.44909048280524        0.20600197676881
N           -0.95907424998394       -1.40515662527322       -0.10980686883649
C           -1.54315506551196       -2.72317063668245       -0.07206471310993
H            3.41675171585228        1.44487015544379        1.23846202327448
H            3.96746426995135        1.34987272123918       -0.45930219239209
H            2.45202978580490        2.16958880908515       -0.02070472814081
H            3.56733483313961       -1.66351144546233        0.08805429257603
H           -1.19191677294425        2.88443120397542        0.32243427197394
H           -2.43055241415863        2.55839342736579       -0.76782724538682
H           -2.63012741072644        1.97343440036491        0.91815828553806
H           -1.22969626809514       -3.31512958895111        0.79271695425767
H           -1.27296793468971       -3.23669958044799       -0.99522921483330
H           -2.62158413546689       -2.57039360416189       -0.01567938293041
H            1.30586829726144       -2.96618927576898        0.08798350896381
25
 energy: 17.099753531843 xtb: 6.6.1 (8d0f1dd)
C            3.01873507730379        1.33390155122026        0.20642452791317
N            2.20341343879830        0.14716301980244       -0.11273712444243
C            2.56980689958614       -1.18992360453278        0.10769457772557
N            1.42164740878389       -1.95440459036076        0.05112441109782
C            0.36711697008959       -1.16335254633564       -0.24044026538538
C            0.84325294714174        0.13157561085760       -0.48437474247898
C            0.07791353132883        1.21241304790773       -0.94092359082351
O            0.40479779300701        2.37009776425159       -1.20733880428846
N           -1.22105599950051        0.92976478539037       -0.31736242275788
C           -1.89209643764729        2.14335250511050        0.11650045575355
C           -1.79023761930460       -0.27917002925936       -0.02097888171339
O           -2.96928766457629       -0.44307063129682        0.25563068635946
N           -0.96281871433354       -1.42392783058296       -0.12377160355322
C           -1.55756164051839       -2.73874395177164       -0.07318439186293
H            3.33264563022640        1.46251300778034        1.25785276602321
H            3.93742852257039        1.40644664633625       -0.41966612233455
H            2.39726131980804        2.19074210273738       -0.01355866142113
H            3.55935386287430       -1.59379772555685        0.09225827041751
H           -1.15483586278344        2.85676649720417        0.42028381884462
H           -2.33283663409751        2.64759763024870       -0.73353367092991
H           -2.59342982114907        1.95541216100769        0.91908119726535
H           -1.24526572126356       -3.33688171334432        0.78858536071051
H           -1.29373395268563       -3.25724096587065       -0.99358366246673
H           -2.63462117672614       -2.58260252786343       -0.00618735730100
H            1.34422684380876       -2.95877441959796        0.09875999025484
25
 energy: 25.219196979710 xtb: 6.6.1 (8d0f1dd)
C            2.96239386210717        1.35630352629535        0.22901165550495
N            2.15421916210834        0.17011007856552       -0.08594189514738
C            2.54744911823165       -1.14939441670940        0.13788545905496
N            1.42429399434388       -1.93671096476560        0.06095989502161
C            0.35225738903748       -1.16969163336054       -0.26865522681771
C            0.79782304371755        0.15072556002808       -0.48051449938383
C            0.06608639350387        1.19820198384495       -1.07086625332346
O            0.39560594393991        2.33533312791002       -1.40198737920389
N           -1.20948822158677        0.91754046152247       -0.32838723648157
C           -1.83200449990419        2.14026802690949        0.13757730839240
C           -1.78446634708919       -0.28242139102229       -0.00045968530042
O           -2.95670275145376       -0.42560610919466        0.31406454724100
N           -0.97590125452763       -1.44157087956542       -0.13471941915233
C           -1.57502961248716       -2.75413713466394       -0.07462866025722
H            3.25211781314517        1.48104537694440        1.28826955665804
H            3.88283591285836        1.43710871370936       -0.38696306459165
H            2.34270393902746        2.20554355056499       -0.01181206377357
H            3.54909276214482       -1.52176890925431        0.09584315528068
H           -1.09255486483560        2.81690793457532        0.50598364352486
H           -2.22397866497597        2.71199445863353       -0.69619441885043
H           -2.55247514315595        1.93291842097427        0.91287354689412
H           -1.26355397059565       -3.35853183807762        0.78349184770990
H           -1.31617517584173       -3.27605740971463       -0.99322491900651
H           -2.65075863483361       -2.59541618488007        0.00260370314876
H            1.38166723284782       -2.94561330781874        0.10337950130086
25
 energy: 38.304987967079 xtb: 6.6.1 (8d0f1dd)
C            2.91389353912301        1.37765706197840        0.25496036112411
N            2.11151091519045        0.18976358827040       -0.03948523791516
C            2.52753895533509       -1.11417287123492        0.17067625355317
N            1.42774899177415       -1.91796709726609        0.06137711175959
C            0.33557602797194       -1.17253654870070       -0.28618727041282
C            0.74743253984947        0.18044921763737       -0.44122605051146
C            0.09757002643967        1.18185046815059       -1.19926901150816
O            0.40536346270806        2.28920166442626       -1.59480914881307
N           -1.20163461099433        0.89515275583410       -0.33181769741768
C           -1.75935630742797        2.13628459949592        0.16438496455682
C           -1.79047781484373       -0.28852041728565        0.00373144730614
O           -2.95044377778986       -0.41296700086793        0.36045202672194
N           -0.98570625837335       -1.45692351907106       -0.12072431957313
C           -1.59167651192551       -2.76739007529669       -0.07764384424662
H            3.17297470039763        1.50085933616604        1.32156458629861
H            3.85309097102133        1.47303809059532       -0.33336305852851
H            2.29090828432435        2.21351918708453       -0.01385973440558
H            3.54154310076996       -1.45184777170783        0.10685747145794
H           -0.99993172779518        2.76606321119206        0.58429171053093
H           -2.09889489391612        2.76985959891526       -0.65064409855300
H           -2.50801380986215        1.92085653943544        0.90599150099301
H           -1.28326198081085       -3.38252462569271        0.77366221176026
H           -1.33732416469953       -3.28843626576474       -0.99741847574010
H           -2.66675103301601       -2.60809128089668        0.00604498376546
H            1.41756211517282       -2.92999112191429        0.10516787872648
25
 energy: 57.982273244990 xtb: 6.6.1 (8d0f1dd)
C            2.86719915555024        1.39005593701382        0.28722743819712
N            2.06639897665688        0.20511127354333        0.00498427521625
C            2.50441257680022       -1.08158439843780        0.19311734731957
N            1.42773756546830       -1.90523343952232        0.06951757910220
C            0.31456028579286       -1.17779185879152       -0.28547282655632
C            0.69026552429582        0.21235979046477       -0.40870110501863
C            0.14059286452271        1.18140057558064       -1.31798179195956
O            0.41777862109983        2.24803313946850       -1.78513406476369
N           -1.18433309090072        0.86832089868730       -0.28195186136141
C           -1.68614403009946        2.13195448968765        0.19561782184681
C           -1.79652760567144       -0.29704958302882        0.03152068511642
O           -2.94944499114243       -0.40359641118428        0.41444640023879
N           -0.99844702894951       -1.46982661685429       -0.09453110744887
C           -1.61087247276056       -2.77923649443118       -0.07744643402039
H            3.09479769195056        1.51585786285177        1.35700568187623
H            3.82729826122462        1.49417152724614       -0.26901138559833
H            2.24406661322253        2.22060236684210       -0.00014742905783
H            3.53560437106932       -1.38059105082645        0.11949269373848
H           -0.90732586396718        2.71940149080187        0.64805967749293
H           -1.95941504789951        2.80537553587003       -0.61242136572341
H           -2.47158565462895        1.94890010497194        0.90581670049302
H           -1.30415116625764       -3.40593216334418        0.76615786325499
H           -1.35849315096716       -3.30057801302903       -0.99884940571980
H           -2.68730047883335       -2.62201279285047        0.00606575392343
H            1.45821555726543       -2.92003985755600        0.10282375747416
25
 energy: 100.414461009591 xtb: 6.6.1 (8d0f1dd)
C            2.79717974331532        1.41642252557919        0.31816786570169
N            1.95586592843051        0.25273352563430        0.07682946478585
C            2.44879404065212       -1.03077180482838        0.21397159136408
N            1.42527160160227       -1.88845577448220        0.03907976786708
C            0.27785589019658       -1.21394401543317       -0.33327807365172
C            0.42898432746428        0.27841569583831       -0.36152656309443
C            0.29225232312346        1.18881302520217       -1.77170900173653
O            0.47840426278587        2.33934129549060       -1.87535476787318
N           -0.98949328722903        0.75378161823490       -0.04135027532616
C           -1.55220670699938        2.09511538096471        0.25109918929322
C           -1.77418619458998       -0.35987256557064        0.13038249090112
O           -2.94572707062805       -0.36499832886471        0.42860938921962
N           -1.03053080684581       -1.51846537039843       -0.03082588892436
C           -1.64153602111698       -2.81201183251211       -0.07400097876309
H            3.00819790673277        1.54645225531456        1.38735233324095
H            3.77534408540013        1.50087061212097       -0.21465012806066
H            2.19325425378116        2.23624335564837       -0.02168186101176
H            3.49659777790939       -1.29281978075923        0.10593479027755
H           -0.83507998406044        2.69951177800132        0.76248047417666
H           -1.80558831142299        2.77766201039040       -0.57497147851503
H           -2.40846094491140        1.96311721413695        0.89217902201090
H           -1.33103529434274       -3.44518457773312        0.76151320192958
H           -1.38272960951240       -3.31061617041436       -1.00535009378559
H           -2.71239183362617       -2.63904579653205        0.00352592800782
H            1.48931552247224       -2.90205576455142        0.07883691846249
25
 energy: 93.333654518826 xtb: 6.6.1 (8d0f1dd)
C            2.72944909864104        1.42785405103758        0.33362036488741
N            1.88841392698064        0.26593794508219        0.10664894351332
C            2.43745179431539       -1.01667862305290        0.25483999796865
N            1.42827850293263       -1.90343453300330        0.01918536376318
C            0.27857448445133       -1.24508962549001       -0.27655745639251
C            0.44391897622582        0.21436407342214       -0.32112955874914
C            0.29990410368303        1.37260267280143       -1.99612156106023
O            0.60965247466357        2.47894285645798       -1.88697075364882
N           -0.91747155777437        0.71511372704065        0.02344412819809
C           -1.47630558371694        2.07376463563725        0.28824072021541
C           -1.74849730298819       -0.36233932458448        0.15693234515173
O           -2.91571380593333       -0.33737053706905        0.45805221729549
N           -1.02569753645306       -1.54800002343860       -0.02251484090303
C           -1.65542718355039       -2.83085526269462       -0.06482182361483
H            2.91875030199515        1.55695671777480        1.40677131241836
H            3.72427660948161        1.50547459053837       -0.16277379074716
H            2.14093330129780        2.24268124535773       -0.03653893299187
H            3.48864557380247       -1.23292082946174        0.12350559352715
H           -0.77551677346869        2.65258835960523        0.85179133495868
H           -1.68065912299536        2.74280315771563       -0.54566952206761
H           -2.38262417355093        1.97821813701206        0.86688689935081
H           -1.35225289924674       -3.46696218738583        0.76947954243600
H           -1.40698912812637       -3.32696548613975       -1.00274916943507
H           -2.72608652684053       -2.65013448090184        0.01107447482256
H            1.52684567596345       -2.91059199712549        0.07009602551061
25
 energy: 90.745000528862 xtb: 6.6.1 (8d0f1dd)
C            2.66961341417158        1.43854050053845        0.34827794082755
N            1.84171010516951        0.26993760159382        0.14672279578631
C            2.42598016026896       -1.00812329696542        0.24008205232853
N            1.43131427229722       -1.91690859928522       -0.00405754618789
C            0.27126367555413       -1.26968226226123       -0.23795019636538
C            0.43472164544561        0.16114622474691       -0.27820043692363
C            0.28668384865983        1.51079549957280       -2.12497718041379
O            0.76862782627570        2.54798202758642       -2.01882765681531
N           -0.88045587605142        0.68303141057319        0.07065443854734
C           -1.41634408026183        2.06161214908472        0.31604252553947
C           -1.73969801984461       -0.37615511185722        0.18931177212170
O           -2.90344214477487       -0.33188179171997        0.50549456261535
N           -1.03151302327315       -1.57356648624826       -0.00284397920945
C           -1.66926580209214       -2.85114655926155       -0.05688354354852
H            2.83131814165093        1.57211384049356        1.42377853448849
H            3.67621305333856        1.50891855333198       -0.11553383009388
H            2.09090947114311        2.24621740208021       -0.05200958775925
H            3.48489704381774       -1.19293036974827        0.17535419380086
H           -0.72170632106769        2.59452276133553        0.93026364368587
H           -1.55231811944053        2.74162609403693       -0.52163273613252
H           -2.37006276696760        2.01355962468567        0.82545643946383
H           -1.37078144967767       -3.48527217303816        0.78109153278637
H           -1.42762186439914       -3.34040555479681       -1.00242451000555
H           -2.73922570557707       -2.66567644626489        0.01609680935294
H            1.56214849491085       -2.91513270895620        0.05360150725171
25
 energy: 89.907706687002 xtb: 6.6.1 (8d0f1dd)
C            2.61267808543303        1.44670103592562        0.35958215678108
N            1.79302268974295        0.27349963311881        0.18675009512660
C            2.41351297058940       -0.99648258220700        0.22412046532418
N            1.43312068883176       -1.94049964283933       -0.03003103664510
C            0.26061352938517       -1.29389559367557       -0.17930193562546
C            0.42310099764161        0.09801445682381       -0.16951361078597
C            0.24473538498470        1.68861867242925       -2.23849224769905
O            0.91428698614184        2.61573925312482       -2.14910556795755
N           -0.85356111289592        0.65583446508167        0.10968076680288
C           -1.36039920648777        2.05756298003056        0.32989827561233
C           -1.73656366051727       -0.39583536141615        0.21304127730760
O           -2.90440543130279       -0.33476565805507        0.51278889746389
N           -1.04244004732664       -1.59945984532295        0.02199130949123
C           -1.68482274733072       -2.87290638669579       -0.05439446892642
H            2.74582375494362        1.58468532279580        1.43529284877040
H            3.63161140657080        1.48199665489085       -0.07118106709599
H            2.05000019154287        2.24956754382573       -0.07298126648198
H            3.46489169740219       -1.15534247279268        0.15951997562713
H           -0.66149128970722        2.52523092865227        0.97922755368292
H           -1.42286018328314        2.77624430333650       -0.50083013847537
H           -2.34338593066707        2.05639630073026        0.79075621005239
H           -1.39296333349363       -3.51402510622336        0.77992514264408
H           -1.44590754779435       -3.35294587291615       -1.00582003386287
H           -2.75389780000970       -2.68313775825575        0.01151027668640
H            1.58854453218475       -2.92882145117257        0.02083192499017
25
 energy: 88.103817029546 xtb: 6.6.1 (8d0f1dd)
C            2.56458121550994        1.46687802566060        0.37183129565783
N            1.76190674876009        0.27703823132642        0.20941410325416
C            2.39944776289840       -0.97281159243206        0.17312985992412
N            1.43957541459154       -1.95897484780373       -0.02262815181290
C            0.25289921530159       -1.31730848525561       -0.12220188384831
C            0.41499196162556        0.05227358038402       -0.06437968149455
C            0.23037293754036        1.91168745466998       -2.31888788645928
O            1.02030046694119        2.73089313026160       -2.13011898190391
N           -0.83387832730616        0.63294093588952        0.15792842951798
C           -1.29833328476902        2.04692651372341        0.35498280802832
C           -1.73390314010104       -0.41639484305963        0.22912508467666
O           -2.91188847427840       -0.33605604269016        0.47208193671351
N           -1.05285663006848       -1.62281927516235        0.05211470808385
C           -1.69948322954120       -2.89334395476873       -0.05055356732100
H            2.65622819539942        1.59892772760145        1.44678693034819
H            3.59940060755539        1.50415978022361       -0.01507248632398
H            2.01534525791822        2.25582434193747       -0.10438017776155
H            3.43894264674902       -1.11823707709966        0.14977863404393
H           -0.60450615491701        2.48111277556024        1.03881969914023
H           -1.29170870431192        2.76312714231480       -0.49158699387209
H           -2.29454836323836        2.07991550643297        0.79217476754222
H           -1.41062278038527       -3.54205861248009        0.77874528558367
H           -1.46509200824941       -3.36482160554558       -1.00674286267751
H           -2.76798462181919       -2.70021536995333        0.01031463682511
H            1.61257992336096       -2.93841420262060       -0.01943683074871
25
 energy: 83.982446027811 xtb: 6.6.1 (8d0f1dd)
C            2.51845778115783        1.48401927298542        0.37622051848702
N            1.75033034430092        0.27580415663024        0.22194069087534
C            2.40401599961994       -0.95554198767626        0.10122928481123
N            1.44882131333805       -1.97025510765689        0.00490218936647
C            0.25002790857556       -1.33647585667354       -0.05922206057578
C            0.40965307756868        0.02282050699794        0.03714269381821
C            0.21454650916644        2.12977994291750       -2.38586211569088
O            1.07981126224443        2.88082164186463       -2.21532493176645
N           -0.83257027083652        0.61077803045210        0.22048319713904
C           -1.24302693747440        2.02359182076167        0.40282283752651
C           -1.74492797231572       -0.43618938705947        0.25886406785972
O           -2.93556341171716       -0.35433794492490        0.46443923298257
N           -1.06158061124311       -1.64022426085718        0.08661730712867
C           -1.70967591178607       -2.91015429003500       -0.04418933615054
H            2.57793345938245        1.63396874539375        1.45592018166323
H            3.55348346549255        1.50574778440796        0.00872857672635
H            1.96731147596645        2.26206280348946       -0.12087502828916
H            3.44924474867219       -1.10997452363575        0.15543023169017
H           -0.55483932719431        2.43165285031507        1.12018478796641
H           -1.17616806965034        2.72602717116336       -0.44344978693816
H           -2.25465223093732        2.07503807275498        0.79040212059743
H           -1.42716557473521       -3.57072948993881        0.77723145118087
H           -1.46435552355118       -3.37501667121073       -0.99749661713350
H           -2.77918569952768       -2.71750378254490        0.00578678239843
H            1.63845921381924       -2.94154351817788       -0.06483793497292
25
 energy: 79.584300227701 xtb: 6.6.1 (8d0f1dd)
C            2.49137509070686        1.48032906447978        0.36615669672474
N            1.76465970039698        0.26104186205405        0.19704339259585
C            2.41021858816939       -0.96653445399441        0.08842055704317
N            1.45811540828034       -1.99079188488262        0.00745001008090
C            0.25241667820528       -1.35973818940611        0.00425921050026
C            0.41749823840979       -0.00961690796917        0.15341120028804
C            0.18463939063022        2.32742721597308       -2.43925481459605
O            1.11093966057378        3.02128622654384       -2.35608589045291
N           -0.83356448677151        0.57793390713450        0.29897456319254
C           -1.20941723974978        1.98514348078439        0.41892133027261
C           -1.74976727937934       -0.46023291198866        0.28681547644561
O           -2.94688361266030       -0.37974929945731        0.46779110944626
N           -1.06662945294818       -1.66127287320196        0.10453352142933
C           -1.71730403195106       -2.92819131549232       -0.03211387442546
H            2.51105771569061        1.65786589141747        1.43958555504419
H            3.53427117786028        1.45830871371781        0.00372879184771
H            1.96097436465150        2.26324230256905       -0.16013101159377
H            3.46255456340266       -1.12905480341123        0.06877058832075
H           -0.54641236545794        2.36996769599315        1.17019848915778
H           -1.13440946280230        2.62140429305331       -0.47674083437118
H           -2.23275382406480        2.04038905127208        0.76842693529582
H           -1.44320491653758       -3.59565396655332        0.78682517824280
H           -1.46937851780521       -3.39484784992313       -0.98625015855971
H           -2.78740680355964       -2.73330541651604        0.01260607632864
H            1.66632260963179       -2.95736952423074       -0.08524797830723
25
 energy: 76.458991353881 xtb: 6.6.1 (8d0f1dd)
C            2.46874560266478        1.47939499514764        0.36690362257631
N            1.77852404259926        0.24486856668453        0.18192301388738
C            2.41833345960886       -0.99668496240275        0.15040017742725
N            1.46651503688840       -2.01597492828905        0.00503392664054
C            0.25757774264344       -1.38756661636877        0.06530374168476
C            0.43114761036266       -0.04236108737311        0.25987223561194
C            0.13648689605342        2.51650474327393       -2.48375393250798
O            1.09008288824860        3.16710946267245       -2.56176776704435
N           -0.82556624294843        0.54455851153624        0.39363850928712
C           -1.19012164499502        1.95042614597580        0.43794419542586
C           -1.74759633183162       -0.47809508172135        0.30428593201186
O           -2.94938063652461       -0.37771683978873        0.40925697943815
N           -1.07139038375585       -1.68335349921543        0.11658945636189
C           -1.72693589406894       -2.94801810015266       -0.02413845038045
H            2.48985948433321        1.71945278860663        1.42822481398606
H            3.50471040467734        1.41867226941530       -0.00157340685383
H            1.95985182987005        2.25923670752377       -0.18954543074931
H            3.45745519964733       -1.12776441407439       -0.03703579673812
H           -0.55115998101296        2.35801647911965        1.19725926778203
H           -1.09296236473373        2.50864132301468       -0.50537429313767
H           -2.23229597832333        2.00786065738090        0.73499749349923
H           -1.45615934748061       -3.62228257560611        0.79180749832437
H           -1.47563069396194       -3.41154177323766       -0.98107879549538
H           -2.79784382298088       -2.74913576586985        0.01899952386729
H            1.68822481110264       -2.98111886121488       -0.09303105680279
25
 energy: 73.916003283915 xtb: 6.6.1 (8d0f1dd)
C            2.44420352679810        1.47863760052339        0.37689676482878
N            1.77110491953838        0.22777477997415        0.20764125497628
C            2.42470749883543       -1.01678897859328        0.16996964597431
N            1.47624327582977       -2.04151135477575        0.00644785642360
C            0.26135471344057       -1.42112487539046        0.11299973251683
C            0.43711023344113       -0.07437462381426        0.30968490509987
C            0.06229150113551        2.68951285062964       -2.50422050029806
O            1.08711086884463        3.20294593828022       -2.63295329537647
N           -0.80859367958622        0.51697910978212        0.41287051960697
C           -1.16253505516540        1.91633111399812        0.43107016881461
C           -1.75434492375685       -0.49231757233118        0.30538649533860
O           -2.96026464521891       -0.37180569632932        0.38991305376508
N           -1.07742255598349       -1.70331776288609        0.14749044801958
C           -1.73847318171408       -2.96648368507908       -0.01658337267061
H            2.52016331281275        1.77194881449300        1.42792079040310
H            3.46136021889649        1.39391738381265       -0.01609003588943
H            1.92272233188855        2.25688116491271       -0.17954524452521
H            3.45106787922173       -1.12476585111461       -0.08333791880125
H           -0.53289103001289        2.41096377618654        1.17696267732770
H           -1.03679972924070        2.41080091107278       -0.54451550105187
H           -2.21607600804056        1.96523301207832        0.69645631396059
H           -1.46968009007681       -3.65227927957970        0.79075962219747
H           -1.49130133185327       -3.42559517993218       -0.97767384530001
H           -2.80988433745612       -2.76772199320021        0.02271210183860
H            1.70752257153925       -3.01140331458785       -0.07401722872822
25
 energy: 73.825088886979 xtb: 6.6.1 (8d0f1dd)
C            2.43229615261502        1.47186807286940        0.37195633114956
N            1.77694278204018        0.21514513406184        0.21037848111731
C            2.43013286600429       -1.01265903275243        0.09955199412846
N            1.48442055825150       -2.04029494783983        0.01156608532058
C            0.26505066998722       -1.43112730429548        0.10877057277452
C            0.44104780717939       -0.07849498618628        0.23395456114166
C           -0.05751247469369        2.82240657257785       -2.48900568949186
O            1.08632932272226        2.99955489441057       -2.48588069812948
N           -0.78932075011368        0.51523573015434        0.35392420474116
C           -1.14073422572918        1.91075716646966        0.40723287640330
C           -1.74169041304300       -0.49690543873470        0.27954793626704
O           -2.94458396923304       -0.35583569755952        0.34871445671108
N           -1.07328708006887       -1.71350649765053        0.13583197610111
C           -1.74276673821764       -2.97668322652210       -0.01744222660999
H            2.48239577115168        1.76002620144694        1.42736461304898
H            3.44670661777983        1.39864147595073       -0.01833252975077
H            1.89481142969638        2.23950169007838       -0.18284793383477
H            3.47855359618899       -1.13849742948167        0.02441328228840
H           -0.53545538176182        2.43480527045667        1.14856161895551
H           -1.01406247063207        2.38363374457254       -0.57740086200487
H           -2.19206139416014        1.96107707048854        0.68849708964583
H           -1.47731496310165       -3.66304448020730        0.78989753985966
H           -1.49663370218085       -3.43540172883873       -0.97796253846011
H           -2.81243354636579       -2.77308934075235        0.02081329776701
H            1.71138384065394       -3.00808412397122       -0.08507052694416
