25
 energy: 0.000000000000 xtb: 6.6.1 (8d0f1dd)
C            3.23720132972391        1.16630909158653        0.08434468864950
N            2.29877796055224        0.07527476373246        0.03981602671198
C            2.58028186251803       -1.21425391179017        0.03006175752192
N            1.43813944744728       -1.93419254010258        0.00098261751768
C            0.39035684826767       -1.05887462812143       -0.00790371763344
C            0.93510047688824        0.21347817468824        0.01709077332874
C            0.09450143016486        1.40504290868848       -0.00410946993748
O            0.49712746915594        2.54126690785742       -0.00342325656480
N           -1.25076628431515        1.06271869620815       -0.03085477937476
C           -2.21907191394203        2.15522079838987       -0.05001256521996
C           -1.81739470187490       -0.20012724136556       -0.04692818139228
O           -2.99983858926755       -0.37846413507442       -0.07008877579474
N           -0.92618577614240       -1.30210203518959       -0.03682761236648
C           -1.46982251276835       -2.64643077634382       -0.06029819901142
H            3.71247229913541        1.21471443890471        1.06488839270555
H            4.00791460421487        1.03430799217987       -0.67357688121503
H            2.69909982127087        2.09770098766290       -0.09130154035862
H            3.56654087521359       -1.63682977417947        0.04233139674524
H           -1.67107945562430        3.09322822573871       -0.02552706696334
H           -2.82428927394145        2.09428605349656       -0.95318074103337
H           -2.87644002486466        2.07745706351925        0.81450059976605
H           -1.17061985538665       -3.19584861009707        0.83242224714061
H           -1.14560246782873       -3.17511580834413       -0.95688266944647
H           -2.55549768731684       -2.55659960601237       -0.07459039105944
H            1.38130842369251       -2.94313824728853       -0.01389874052104
25
 energy: -5.366655450699 xtb: 6.6.1 (8d0f1dd)
C            3.23833733322826        1.18018472216718        0.08951561476651
N            2.30583959715258        0.09593682164226        0.03808926001123
C            2.59895765617650       -1.23167061890490        0.03071989225184
N            1.42778123329832       -1.94080526054579        0.00063018696728
C            0.39568440458385       -1.05780178096873       -0.00832018029891
C            0.92875928128946        0.22156675192361        0.01238373713546
C            0.10306584141959        1.39634186046825       -0.01720991933044
O            0.50042660750777        2.56218951345905       -0.02451453336176
N           -1.25805759808065        1.04918758014739       -0.03222237832116
C           -2.21446496440923        2.14705165324587       -0.04622921132133
C           -1.82289654220536       -0.20175696900080       -0.04511398630885
O           -3.01979510430639       -0.38275058643239       -0.06523096938609
N           -0.93481009227533       -1.30308066024802       -0.03660108455691
C           -1.47360493112053       -2.64496197633237       -0.06057576592162
H            3.71225636095057        1.22797563103112        1.07343074072853
H            4.00896441957078        1.04648157645360       -0.67071729052946
H            2.68957455466944        2.10323818038840       -0.08866269689038
H            3.57772136682873       -1.65624460657991        0.04325310807187
H           -1.64864996867058        3.07541111125449       -0.01634705597404
H           -2.81656313751583        2.09811034697603       -0.95239827767016
H           -2.87303246526730        2.07557295567164        0.81836481161376
H           -1.17044712791158       -3.19778804236111        0.83062851134126
H           -1.14620681072408       -3.17515992837169       -0.95707495819010
H           -2.55892480093901       -2.55361681992460       -0.07439681261379
H            1.36229919172244       -2.94458266641455       -0.01436683001819
25
 energy: 3.412125457189 xtb: 6.6.1 (8d0f1dd)
C            3.18101528084470        1.26001940265004        0.15746291246427
N            2.32368952093314        0.12288387728704       -0.00291282587228
C            2.63285976065003       -1.29600963485919        0.04218124186176
N            1.38603745749668       -1.94749346312272        0.01026260962401
C            0.40436205942278       -1.07390215090636       -0.03290152980863
C            0.91502009042389        0.22260352670361       -0.07911292847275
C            0.14941536997071        1.32747464996773       -0.24987391142884
O            0.44975172250899        2.54276482612461       -0.45067360743350
N           -1.28152597139643        0.97477627855823       -0.06871215161610
C           -2.12485187541825        2.13495254132294        0.01952506033101
C           -1.82782140625114       -0.23694055018644       -0.01257124598040
O           -3.03754909776945       -0.43573286472112        0.06072930591805
N           -0.95863253487467       -1.32454668675965       -0.04110267816553
C           -1.49613957114136       -2.65617069284266       -0.06859827828485
H            3.59814845008145        1.37008705277792        1.17326823553447
H            4.01958047915323        1.25234665837877       -0.55726361969387
H            2.55313906642935        2.14044326196710       -0.03326599449547
H            3.58782396999903       -1.74814400307228        0.06354168193489
H           -1.38499517200535        2.95230509716351        0.16044625607422
H           -2.70012894412102        2.26318611689031       -0.90954845208390
H           -2.79713491529073        2.05647537018807        0.87119647725244
H           -1.18846989224061       -3.23805537116208        0.80620930866417
H           -1.19041741612025       -3.18606325554066       -0.97674275093588
H           -2.58182752979665       -2.54146103972182       -0.06395443580056
H            1.28086540348433       -2.94677015834083        0.00944523260790
25
 energy: 15.715695764135 xtb: 6.6.1 (8d0f1dd)
C            3.14522004470479        1.29843580299144        0.19150833337922
N            2.32874239418563        0.13355757866959       -0.01675568392782
C            2.64781411689613       -1.32218759240379        0.04968558606583
N            1.37345581945869       -1.95519284025228        0.01521365743045
C            0.40767937615392       -1.08411773207155       -0.04888722366524
C            0.91006798595546        0.21750564650172       -0.12804504134565
C            0.16867527642253        1.29832880162677       -0.38713824985562
O            0.43721715208329        2.52386213027086       -0.64614505061357
N           -1.28701608917577        0.94646952766757       -0.10716851964775
C           -2.07589178510314        2.13515226550750        0.05661812120959
C           -1.82930159881381       -0.25145380911811       -0.00406025710233
O           -3.04390500462134       -0.45621244297418        0.12144839327645
N           -0.96761842332785       -1.33681643171132       -0.04843222245378
C           -1.50751289980092       -2.66407602395382       -0.07159331508406
H            3.52969200788953        1.43601411607921        1.22287326080271
H            4.01295802769887        1.34703458455101       -0.49771798685757
H            2.48147380206452        2.15631653877435       -0.00971456713242
H            3.59420107840043       -1.78409587956655        0.07812836078798
H           -1.27342980949916        2.90342215012248        0.24401791431263
H           -2.64201447622355        2.34436032197510       -0.87311361490039
H           -2.74686934978275        2.04593901649170        0.90697471840453
H           -1.19724889400113       -3.25684757824132        0.79659480974225
H           -1.21487579740310       -3.19609877698700       -0.98444031739509
H           -2.59303115077898       -2.53812962129163       -0.05634572192796
H            1.25373250159003       -2.95214096391368        0.02352852869220
25
 energy: 26.788276313134 xtb: 6.6.1 (8d0f1dd)
C            3.10528922376500        1.33493463007982        0.22314239799529
N            2.33242824853859        0.14376940503571       -0.02113472316691
C            2.66034653585840       -1.34738571089390        0.06157938817537
N            1.36451676716464       -1.96213675257576        0.02750908354024
C            0.41010197674411       -1.09284600838417       -0.05998550441781
C            0.90686246263138        0.21213199426243       -0.16499033915301
C            0.18868344592177        1.27500567900678       -0.54150676574439
O            0.42431821773007        2.49226250054950       -0.81341535025179
N           -1.29272892124449        0.92799927812186       -0.16085129581877
C           -2.02245893929921        2.13992424143707        0.09597000542953
C           -1.82835841067136       -0.26127013260946        0.00320084413003
O           -3.04258374656530       -0.47347175070556        0.17715149242558
N           -0.97414454476028       -1.34742062862807       -0.05517247083794
C           -1.51710494833228       -2.67176597773476       -0.07482136936698
H            3.46502039173463        1.49510121882166        1.26264023890796
H            3.98805641143255        1.43222430748226       -0.44330555284502
H            2.41623803135279        2.17269404133138        0.00923824446383
H            3.59958108781909       -1.81812983680506        0.08492719612054
H           -1.19027432916165        2.86205154430409        0.32440141256379
H           -2.56667885211692        2.42074288747740       -0.82834494979351
H           -2.69892013139798        2.02921455689705        0.93733854748993
H           -1.20739108991697       -3.27558358289019        0.78704052203702
H           -1.23775302001779       -3.20540122357835       -0.99196273010645
H           -2.60251343664261       -2.53618590001266       -0.04928273529665
H            1.23168187440613       -2.95742999124503        0.03766832571472
25
 energy: 34.001393717119 xtb: 6.6.1 (8d0f1dd)
C            3.06507275425049        1.35346000607655        0.23886720409589
N            2.33212311774663        0.14983552679945       -0.00405230859331
C            2.65869850361794       -1.35901018717741        0.07825814837796
N            1.37492684611927       -1.96400598732845        0.05425780503416
C            0.40606835634292       -1.09108430298617       -0.05456021917248
C            0.91270468252777        0.20884040296361       -0.15180038499118
C            0.20193624828547        1.28328519577933       -0.70741634056146
O            0.40748756966333        2.41632888312081       -0.86241484158857
N           -1.30201554598535        0.94959130463075       -0.24149697955543
C           -1.96767711504151        2.16081487935624        0.13032285154031
C           -1.82533024966213       -0.25464768062390        0.01688396789066
O           -3.01993111716715       -0.47996534662569        0.21351708063824
N           -0.96923301934049       -1.35086987525442       -0.05450099319200
C           -1.51706023014199       -2.67889381928220       -0.07768854343250
H            3.41871197074520        1.50899858466857        1.26546321284249
H            3.92174818493443        1.46906731088495       -0.40637044288975
H            2.39233428902821        2.18148792042925        0.00863939721721
H            3.59823553843710       -1.83389119849377        0.06426620877851
H           -1.21601317079515        2.84148684842488        0.37036594389619
H           -2.44836977740607        2.46769106379140       -0.76687498846938
H           -2.67907405214370        2.01088237944949        0.93393756381267
H           -1.21766604257397       -3.29115460586934        0.77971763824819
H           -1.24892702350366       -3.20857931969595       -0.99823684033729
H           -2.60259998562147       -2.54075529183350       -0.04522655647648
H            1.23606357265617       -2.95988390246040        0.04317632908199
25
 energy: 27.387265247976 xtb: 6.6.1 (8d0f1dd)
C            2.94333992722361        1.39230534023793        0.27825270635280
N            2.27826148600918        0.16214041447926       -0.05917331372891
C            2.63269026713568       -1.29736572978919        0.06924872433877
N            1.40352621313536       -1.97028210786534        0.04229871452436
C            0.39061618490089       -1.11509894393431       -0.10847955122784
C            0.89123258091065        0.18067631528376       -0.28834611731348
C            0.16673931052490        1.22350144011606       -0.76976697389987
O            0.42324792596431        2.40472765319181       -1.24854290482401
N           -1.26926359979246        0.89856530089481       -0.30701027960046
C           -1.83299970119316        2.14512398675775        0.17049062578262
C           -1.81739002969648       -0.27340265661792        0.00373174904456
O           -3.00230760618042       -0.45073854846411        0.29728556500654
N           -0.96243423977566       -1.39388992323379       -0.07908565550711
C           -1.54340293485931       -2.71552158180548       -0.06436424780126
H            3.15645762596641        1.54280549664810        1.35888057494566
H            3.87671395126236        1.55141314224001       -0.27513504674954
H            2.23461800597146        2.17875310129842       -0.01068331993504
H            3.59091005622914       -1.74455461812208        0.09535103024304
H           -0.96236988774882        2.73164225131608        0.61747041519229
H           -2.24738906768821        2.68026784196925       -0.70351127086417
H           -2.58267970973149        1.97087134833179        0.93040695440859
H           -1.23310387654182       -3.32186446338488        0.79265021887663
H           -1.30316368011038       -3.25675791385849       -0.98571956811111
H           -2.62453568809396       -2.56657856941498       -0.00985457531105
H            1.30490079115051       -2.96770978753037        0.08063945835267
25
 energy: 31.320419787007 xtb: 6.6.1 (8d0f1dd)
C            2.73133950062229        1.42636206298248        0.32604291953921
N            2.18229618501413        0.14346326755437       -0.07284934873217
C            2.54962358862172       -1.13029843513642        0.16765286979911
N            1.45767793930038       -1.93388382537222        0.07514517797272
C            0.35097572365407       -1.15506980939252       -0.17487408019210
C            0.84947803655757        0.14436238702440       -0.42569339143664
C            0.11361734206725        1.19654396261829       -1.10100443897666
O            0.44373525687799        2.27021459808927       -1.64753864421022
N           -1.19649458977500        0.89497650767802       -0.37834619905719
C           -1.58369032887561        2.12556228601919        0.27552427055655
C           -1.77474464039131       -0.27422365750482        0.01513726628555
O           -2.89734827113069       -0.36343316814302        0.44452009617250
N           -0.96165118122567       -1.45744291611305       -0.11085016003957
C           -1.59443106619354       -2.77333256252533       -0.07154874468523
H            2.77790867445841        1.56028354495654        1.42165807858766
H            3.72246541915959        1.57341752308882       -0.09790256263731
H            2.05614465499116        2.18718869901554       -0.07810777619102
H            3.55161946687602       -1.51184932011249        0.10004042385067
H           -0.73603636855674        2.54943269117738        0.89423655557793
H           -1.78148241328644        2.86310478516387       -0.52994506494290
H           -2.45234834031099        1.91636619541270        0.89917586863415
H           -1.28561861136214       -3.38955384735300        0.77811771962322
H           -1.39842028635405       -3.31857551577081       -0.99743630234091
H           -2.67094558329981       -2.60992704025535        0.01734520342047
H            1.45854419753369       -2.94465962435772        0.09853417561684
25
 energy: 47.271832497745 xtb: 6.6.1 (8d0f1dd)
C            2.65835726377494        1.43511535587786        0.33290369308529
N            2.13966323869035        0.15320364027065       -0.08641672725955
C            2.53079100077966       -1.06888212317356        0.23671031371577
N            1.46396664581206       -1.92074333039319        0.07337170427599
C            0.34590386167682       -1.17895513567708       -0.21106066719258
C            0.81115858732083        0.13799922481448       -0.46113781455874
C            0.10770119902005        1.22245092074901       -1.17740416328440
O            0.46315673697669        2.22476526832097       -1.73243530605421
N           -1.15523355247419        0.91649127817620       -0.30680480555148
C           -1.49918400414498        2.12114285302478        0.31944718674339
C           -1.74968268521506       -0.26952034187538        0.02467284974284
O           -2.86042428160836       -0.32822880184953        0.49109830605547
N           -0.98088343452497       -1.47771639459035       -0.11957822300663
C           -1.62106765487638       -2.78995843415810       -0.08399007781609
H            2.64678773240629        1.55440014324127        1.42243860012432
H            3.67004167828404        1.53364684738799       -0.04007982403654
H            2.02510154413754        2.20048037534921       -0.11183072575439
H            3.54613054331101       -1.39820743590194        0.10394912080801
H           -0.70482253867033        2.48984244815800        0.90448553559388
H           -1.60429985586895        2.77008870656387       -0.46771944085905
H           -2.39570615317337        1.97738244851642        0.88841959786788
H           -1.31624960035041       -3.42071487935519        0.75969141296602
H           -1.43421238261051       -3.33764854618616       -1.01067915508509
H           -2.69736929758879       -2.62608308310031        0.00850307966918
H            1.52258971388825       -2.93132221544581        0.07047944200541
25
 energy: 50.579110792057 xtb: 6.6.1 (8d0f1dd)
C            2.60136562387692        1.46742781135303        0.34949601019462
N            2.11679276345993        0.18416083226707       -0.10375206302060
C            2.53576518712858       -1.07129069694467        0.25445615611317
N            1.45863812813514       -1.92614762918065        0.07721685551530
C            0.34711401945601       -1.19511273170963       -0.22935667222271
C            0.78940943502304        0.12895348730964       -0.50177615658805
C            0.11106390215059        1.20305618738573       -1.24496494295829
O            0.45752211689406        2.20335056094555       -1.91237348061724
N           -1.14499833113085        0.89031712793079       -0.34554084873174
C           -1.43074775914527        2.12030517404146        0.35741995910882
C           -1.74582211820794       -0.28582593499918        0.02107373681285
O           -2.86650285088879       -0.34041405094711        0.54781158368667
N           -0.98848816308000       -1.49600706010018       -0.12649614529767
C           -1.63629162711858       -2.80433121538237       -0.08239038942415
H            2.54209265790504        1.59955243004134        1.45088355593083
H            3.63652709521753        1.57641746388205        0.01868332573401
H            1.96601532794885        2.21818536632033       -0.12435959700696
H            3.55180825465851       -1.37564213461801        0.11315640651557
H           -0.59609935918226        2.42747402545900        1.04106200139254
H           -1.46077092008814        2.85217817374741       -0.45617394143764
H           -2.36351997036178        1.98331724625952        0.88779227418921
H           -1.33302988462400       -3.44504011416676        0.75612390092903
H           -1.45910521415822       -3.35676773014441       -1.01068465028783
H           -2.71206198662128       -2.63654933816093        0.01437322724803
H            1.53553797772516       -2.93253846184494        0.07535380641694
25
 energy: 58.808030514320 xtb: 6.6.1 (8d0f1dd)
C            2.56043833245891        1.47214636390632        0.34092430467194
N            2.08974646346152        0.18927874641582       -0.10211504671005
C            2.51338804198393       -1.04091002615239        0.27282188081700
N            1.45873495722173       -1.91409036636004        0.08769394661441
C            0.34163789699411       -1.20667400813590       -0.22597153170790
C            0.77272578959153        0.12462465482056       -0.50184477509305
C            0.10270323267967        1.21098824133621       -1.24130366926463
O            0.43622745371348        2.18416063620529       -1.91713508548654
N           -1.12929094675189        0.88268257205873       -0.29214507983763
C           -1.38160734055202        2.10891890153551        0.37006599989859
C           -1.73697478353713       -0.29747575199048        0.05933134842769
O           -2.83687078014646       -0.34491123417719        0.48079822630168
N           -0.99270841086578       -1.50719298122854       -0.10583828208118
C           -1.64896708085911       -2.81420244350065       -0.07751418266170
H            2.49460512216681        1.61099777225301        1.42128916274289
H            3.58953906944902        1.55850027828458        0.02635047357112
H            1.95722537271393        2.23325590678758       -0.15231270735005
H            3.53724600709169       -1.31693420701814        0.08155264314138
H           -0.54695086036026        2.37118050427049        1.10558535702135
H           -1.31624470269324        2.85534253569240       -0.47654443988144
H           -2.36765588766667        2.02420709869581        0.84468350392841
H           -1.35604163424648       -3.46511981799543        0.75747269164702
H           -1.47201672336187       -3.36208768496095       -1.00704764350141
H           -2.72526071219726       -2.64642675130672        0.01693590818534
H            1.56858642868407       -2.92123015069177        0.06130090880147
25
 energy: 63.407581717202 xtb: 6.6.1 (8d0f1dd)
C            2.55844951243704        1.48605971088838        0.33575162243960
N            2.03590689847670        0.20839617608462       -0.03178885684206
C            2.49933093410652       -1.04588493127282        0.25481450180082
N            1.45421421662845       -1.92111529363883        0.07899146509060
C            0.33114863268523       -1.21496565590666       -0.25272208874427
C            0.75610335817884        0.12421998564192       -0.51575988806736
C            0.10547575210643        1.21431255662781       -1.28671333376914
O            0.46090850436512        2.23328432312786       -1.89559231224092
N           -1.13358993865123        0.86182279683099       -0.30873886781124
C           -1.34366584193932        2.09134608604912        0.38257852049473
C           -1.75616585921317       -0.31087095123217        0.04923662176142
O           -2.89486085876908       -0.35641887154455        0.46776409740255
N           -0.99873313205769       -1.51255655133915       -0.09410545601568
C           -1.65487416746891       -2.82384141889148       -0.06122643681586
H            2.47182519632913        1.68103100471255        1.41053931468050
H            3.59593068809767        1.53151200976104        0.03162899687492
H            1.97889426766803        2.24127789343395       -0.19454626176504
H            3.52867708202018       -1.27841094314222        0.08033311740177
H           -0.59831494376590        2.27494947813003        1.17068987205962
H           -1.17735758755920        2.80785467245512       -0.41223191501162
H           -2.34276254008749        2.11600043626954        0.78523385056662
H           -1.36572429400504       -3.46731248313487        0.77952655734039
H           -1.46368934158486       -3.37401740651499       -0.98675140942143
H           -2.73250481188691       -2.65887077611124        0.02045192808757
H            1.59759257886175       -2.91877305853983        0.01967027269820
25
 energy: 65.702135131084 xtb: 6.6.1 (8d0f1dd)
C            2.55807864593034        1.48630239703239        0.33579229339565
N            2.02826907909355        0.20943912206997       -0.02140096235651
C            2.49655281228804       -1.04448751797751        0.25235102428493
N            1.45444142535214       -1.92087437237113        0.07522102211449
C            0.32947541494560       -1.21607868895214       -0.25646406232652
C            0.75223775119834        0.12753880741910       -0.51457200082284
C            0.10895284562325        1.21778717440176       -1.29802587825863
O            0.46749656767926        2.24048152119081       -1.89743622161884
N           -1.13394312445146        0.85821855002540       -0.30490358608293
C           -1.34089336020768        2.08992445344342        0.38384632776041
C           -1.75726485122011       -0.31320087793184        0.05287516555182
O           -2.89605906225796       -0.35912781666756        0.46864808441990
N           -0.99971210452764       -1.51491625925587       -0.09108387128704
C           -1.65608860874882       -2.82598759571418       -0.06068430106215
H            2.47568534488823        1.68583517301849        1.41069436206948
H            3.59513412787938        1.52717577837465        0.02811062109686
H            1.97811132476391        2.24123360315631       -0.19504504805299
H            3.52802882115120       -1.27242231624818        0.08665033619345
H           -0.59606179587266        2.27576491528054        1.17208168853791
H           -1.17409942209913        2.80221831019871       -0.41326140055885
H           -2.33954909316447        2.11899569151778        0.78450422691357
H           -1.36804205715893       -3.47048203258881        0.77972209993228
H           -1.46413132670954       -3.37520215913998       -0.98656475080744
H           -2.73374723003838       -2.66071240936338        0.02013586396739
H            1.59934218063577       -2.91839466217468        0.01584287919127
25
 energy: 71.284027712564 xtb: 6.6.1 (8d0f1dd)
C            2.55626534649767        1.48618045101255        0.33654958697020
N            2.01327543024780        0.21164767421268       -0.00249745294061
C            2.49045948154534       -1.04133732588315        0.24535897258141
N            1.45463556792994       -1.91985764291985        0.06683522808614
C            0.32577883421457       -1.21780734718691       -0.26432154814014
C            0.74394015039431        0.13488301852954       -0.51352520371534
C            0.11984676314306        1.22672444649309       -1.32489728243665
O            0.48268246347337        2.25819986315870       -1.90353471357765
N           -1.13015019170437        0.84869441841089       -0.29106249335010
C           -1.33494549719036        2.08652535870073        0.38622735097641
C           -1.76046910160079       -0.31857122319079        0.06187132018445
O           -2.90039602134458       -0.36426942450073        0.47129565138468
N           -1.00183425812486       -1.51984719191055       -0.08411406162000
C           -1.65858599011478       -2.83061105332058       -0.05954894915306
H            2.48175899479029        1.69376080121476        1.41147257968093
H            3.59228301031062        1.51914026241099        0.02289497958249
H            1.97633186393231        2.24148638984127       -0.19435941169468
H            3.52630650927984       -1.26106705592488        0.10100121505136
H           -0.58839588995734        2.28252097199871        1.17141283942786
H           -1.17123438477971        2.78955424447184       -0.41916115155833
H           -2.33226036268917        2.12071517259639        0.78728302830208
H           -1.37339611498979       -3.47761370946925        0.78011538035341
H           -1.46496652879139       -3.37786582528824       -0.98618983256193
H           -2.73642476672849       -2.66479571488997        0.01913447043044
H            1.60170899722880       -2.91736076982308        0.00879340993134
25
 energy: 103.390388726594 xtb: 6.6.1 (8d0f1dd)
C            2.54279630443478        1.48494778186176        0.34142859566779
N            1.92156869932804        0.22500703338795        0.10715771650915
C            2.45205529422563       -1.02121401120560        0.19948132808734
N            1.45542011321133       -1.91269282510594        0.01622281234077
C            0.30229068702899       -1.22811972587159       -0.31179258751993
C            0.69097895340740        0.18097644383944       -0.50882310078895
C            0.19524511183877        1.28475350519501       -1.50120532574210
O            0.58263272436912        2.37465306163705       -1.94558238683806
N           -1.09579453604075        0.78548324082212       -0.19121826597421
C           -1.29756630943125        2.06406228647670        0.40185598438609
C           -1.77973378111681       -0.35240770747533        0.12139920245311
O           -2.93019625223474       -0.39491823753249        0.48691737117146
N           -1.01503611202715       -1.55054776343880       -0.03893054247882
C           -1.67418243964388       -2.85917449320927       -0.05205196184575
H            2.51385311362090        1.73815282943487        1.41563519596133
H            3.57218958747380        1.47109296821102       -0.00649253554559
H            1.96470408809966        2.24364578046049       -0.18928232148517
H            3.51361243483204       -1.19291035454348        0.18761361751522
H           -0.54408769380817        2.32992001374798        1.16892589899376
H           -1.15414064623284        2.70914594066486       -0.45782331433520
H           -2.28986917183742        2.12512381398192        0.80344741819246
H           -1.40648443804616       -3.52209119795479        0.78271651471981
H           -1.47033360926908       -3.39369662818701       -0.98380282561304
H           -2.75313453587507       -2.68969474754138        0.01363726333280
H            1.61542671866516       -2.91046821891139       -0.03239983896956
25
 energy: 121.878315636535 xtb: 6.6.1 (8d0f1dd)
C            2.47373819396732        1.47033827357082        0.35418963753252
N            1.66824955432393        0.28104878031201        0.26917796186308
C            2.38421401554631       -0.93360426732160        0.08322306877894
N            1.44360104688441       -1.91136787448402       -0.01824565066837
C            0.24333065284795       -1.30861262313375       -0.31065501740683
C            0.33259808701254        0.32166356691940       -0.25877237509051
C            0.33815548330508        1.62441501423269       -2.05743166137240
O            0.89583526030260        2.57091305182550       -2.16118172292709
N           -0.78815528862347        0.55970637846371        0.21297322213388
C           -1.19704503866553        2.00112398976209        0.41569238435674
C           -1.72222038592405       -0.46095826633890        0.29626868641592
O           -2.91489031763538       -0.38697727413416        0.41043046983973
N           -1.02612114664016       -1.65405946056383        0.08686844357832
C           -1.70258196603366       -2.91318845360973       -0.05318183260067
H            2.52742814191321        1.76264169594741        1.42169451319357
H            3.50230227752470        1.40768640690132       -0.01431376360540
H            1.94809265488342        2.26096385662246       -0.18260664960131
H            3.40038692073310       -1.11266907656171        0.16223896368925
H           -0.51484348414699        2.39736307868346        1.18478888012200
H           -1.11873292202350        2.55925760921932       -0.50182519606496
H           -2.21687813085944        2.05618580455877        0.76040733938814
H           -1.43402165880863       -3.57037831567710        0.77768976212261
H           -1.47394577096992       -3.40852137348430       -0.99257506806347
H           -2.77293346490610       -2.71549776072722        0.00473782590089
H            1.63665159096455       -2.90844397223853       -0.06255830931987
25
 energy: 97.738886604745 xtb: 6.6.1 (8d0f1dd)
C            2.45929695621147        1.47370147264705        0.36175374747894
N            1.68344606829459        0.27367287100809        0.26443118648416
C            2.38231764422898       -0.93354410169659        0.08599850936328
N            1.44524769096570       -1.92013142616303       -0.02194485156740
C            0.24877738787164       -1.32969489547073       -0.29712537916020
C            0.35729854316289        0.26779673727369       -0.32050656819939
C            0.31751933611988        1.68483533067630       -2.15714874225524
O            0.98585088217248        2.69007054041030       -2.13333354579344
N           -0.82833135476456        0.56698186450082        0.26477127444584
C           -1.19308746388372        1.99535332905146        0.43394029929534
C           -1.73963293815620       -0.46624871110659        0.31042704007581
O           -2.93716343233109       -0.39214277317056        0.41263886739349
N           -1.02712938485731       -1.65566520467600        0.10495442163458
C           -1.70747999419006       -2.92046298343135       -0.03783754258852
H            2.52041319557638        1.77679121279056        1.41901324065789
H            3.48181602791901        1.39447734234861       -0.01847047828064
H            1.94192344847999        2.25909287518596       -0.18640888363721
H            3.41080407225582       -1.10235851540270        0.17423272209065
H           -0.51637162295100        2.40987514234488        1.17727164107257
H           -1.09480046227508        2.51451985948876       -0.51705967550138
H           -2.22237950646405        2.05135986489001        0.75771998782996
H           -1.44699559787971       -3.59325469873857        0.78623373835794
H           -1.47513730517889       -3.41237247635439       -0.98082769314631
H           -2.78016785230088       -2.72895341710995        0.01095906484380
H            1.64617996694598       -2.91467045055188       -0.06664846869981
25
 energy: 87.608797717645 xtb: 6.6.1 (8d0f1dd)
C            2.45239269821270        1.50368188685937        0.38647160632326
N            1.79768769815996        0.23669270542201        0.18551256336897
C            2.39368264972951       -1.01383889191270        0.14019881803413
N            1.44882583940072       -1.98007452141063        0.00830094822406
C            0.24817081993506       -1.36924670304178       -0.01297641871515
C            0.37541159954229        0.00933114533465       -0.06501011366687
C            0.18160523580848        2.30455932917354       -2.43094712811491
O            1.11482162255138        3.03196548468294       -2.36011447211235
N           -0.87219037658559        0.53730367459595        0.45550450284775
C           -1.17310798842709        1.90620019645937        0.41320463393473
C           -1.74984413211313       -0.48262667720300        0.29796520442510
O           -2.96547046423017       -0.37728952778910        0.39748098032437
N           -1.06467566306580       -1.69340470626654        0.10843592887848
C           -1.73578264103600       -2.96570632953431       -0.01785806214090
H            2.49999100780744        1.76701618581463        1.43013282885070
H            3.45395854698529        1.40895176773548       -0.02082241103459
H            1.91161550846815        2.25390488616995       -0.17498777614106
H            3.47219195753952       -1.14268278852988        0.05196957275742
H           -0.55964771588563        2.45099780954992        1.14598927937739
H           -1.02302568092613        2.39203151192269       -0.56471066377653
H           -2.22303659072134        1.99511643090403        0.70461741954107
H           -1.46509135185817       -3.64113151420865        0.79313146293503
H           -1.49192723607299       -3.42783142965337       -0.97990859027365
H           -2.80448248711600       -2.75610872385981        0.02245017472277
H            1.69014144886981       -2.95878241247063       -0.08699637637449
25
 energy: 77.909841870190 xtb: 6.6.1 (8d0f1dd)
C            2.41712000532879        1.45394018392792        0.37590133261246
N            1.73995630828421        0.21789525687342        0.21282518917792
C            2.42812266012600       -1.01786980447556        0.13335315221713
N            1.48727961295582       -2.05872360068963        0.01453866252575
C            0.26611492968477       -1.43949682502707        0.10829000980303
C            0.46196926751273       -0.07354965782450        0.34613143927586
C            0.06428141959535        2.71755672511273       -2.51057973053771
O            1.07461449450858        3.21727680963723       -2.64623044844311
N           -0.78996799121910        0.51164323090573        0.40294802462517
C           -1.13654319016896        1.91063418696254        0.41208067569509
C           -1.73769116967057       -0.48086594272708        0.29993306840233
O           -2.95608582995536       -0.37006536083918        0.36782214305798
N           -1.07600060617286       -1.71086223078329        0.15771589363113
C           -1.74559240580247       -2.97665773691579       -0.02285965648966
H            2.47127326182450        1.74623864381262        1.43179978303223
H            3.42994349557822        1.38847788730217       -0.00654939545021
H            1.89217045198033        2.23812646571877       -0.16919753787949
H            3.44275937263005       -1.12596201303097       -0.06097994229863
H           -0.53946187462501        2.45544560497729        1.14933010665108
H           -1.00164423189148        2.35358908129851       -0.59568848500355
H           -2.19895737327932        1.93985708898305        0.67785251760914
H           -1.48002138420622       -3.67087671641393        0.78459164968583
H           -1.50439829342866       -3.43884201524735       -0.98556461261927
H           -2.81829629869059       -2.77833162051273        0.02087006764381
H            1.72126967407358       -3.01954885228074       -0.07129999472962
25
 energy: 73.825088886979 xtb: 6.6.1 (8d0f1dd)
C            2.43229615261502        1.47186807286940        0.37195633114956
N            1.77694278204018        0.21514513406184        0.21037848111731
C            2.43013286600429       -1.01265903275243        0.09955199412846
N            1.48442055825150       -2.04029494783983        0.01156608532058
C            0.26505066998722       -1.43112730429548        0.10877057277452
C            0.44104780717939       -0.07849498618628        0.23395456114166
C           -0.05751247469369        2.82240657257785       -2.48900568949186
O            1.08632932272226        2.99955489441057       -2.48588069812948
N           -0.78932075011368        0.51523573015434        0.35392420474116
C           -1.14073422572918        1.91075716646966        0.40723287640330
C           -1.74169041304300       -0.49690543873470        0.27954793626704
O           -2.94458396923304       -0.35583569755952        0.34871445671108
N           -1.07328708006887       -1.71350649765053        0.13583197610111
C           -1.74276673821764       -2.97668322652210       -0.01744222660999
H            2.48239577115168        1.76002620144694        1.42736461304898
H            3.44670661777983        1.39864147595073       -0.01833252975077
H            1.89481142969638        2.23950169007838       -0.18284793383477
H            3.47855359618899       -1.13849742948167        0.02441328228840
H           -0.53545538176182        2.43480527045667        1.14856161895551
H           -1.01406247063207        2.38363374457254       -0.57740086200487
H           -2.19206139416014        1.96107707048854        0.68849708964583
H           -1.47731496310165       -3.66304448020730        0.78989753985966
H           -1.49663370218085       -3.43540172883873       -0.97796253846011
H           -2.81243354636579       -2.77308934075235        0.02081329776701
H            1.71138384065394       -3.00808412397122       -0.08507052694416
