25
 energy: -42.102503602902 gnorm: 0.006250006189 xtb: 6.6.1 (8d0f1dd)
C            2.08088722874619        1.55006478743431       -0.32445511676759
N            1.69010423643278        0.16265329333090       -0.30320500693805
C            2.50167119799561       -0.81243401436323       -0.68196353779935
N            1.92927605056997       -1.99340497079610       -0.46983201884285
C            0.66817108509549       -1.82282644538538        0.11724956762930
C            0.51563891402873       -0.38783012906353        0.20029680197563
C           -0.57638181345906        0.31278420782864        0.80292387643166
O           -1.39471663143275       -0.19534589666113        1.54856753767464
N           -0.66411802445042        1.71771856504566        0.54413587238327
C           -1.12750402145283        2.17099784764179       -0.76021121166789
C           -2.53013670812846        1.87310639399274       -0.94044451128233
O           -3.58246612988294        1.50528098579510       -0.62551799001958
N            0.01365101107190       -2.88344193058970        0.38867922442001
C           -1.24700742657706       -3.08783382541895        0.97839066169050
H            1.57795067516138        2.08714766442925        0.47606844613542
H            3.15822843773473        1.61939504952018       -0.18362714799274
H            1.82958386418437        2.01314745348629       -1.27997875479489
H            3.48294567275548       -0.66333148133074       -1.09042890858534
H           -1.21225798579662        2.13911249071831        1.29254428482899
H           -0.54965836546431        1.69257440824912       -1.55872810542578
H           -0.98132190605754        3.25704797157626       -0.83615839969014
H           -1.14358067913577       -3.90607324093180        1.69563056577616
H           -1.94741127935021       -3.41930530658848        0.20650523448437
H           -1.65062105869627       -2.20362646997868        1.47982698060572
H            2.31950517020473       -2.90733886634804       -0.64509672632738
