25
 energy: -42.156821798377 gnorm: 0.008915769038 xtb: 6.6.1 (8d0f1dd)
C            3.00216091420021        0.76649691985398        0.03906820096112
N            2.42609199277623       -0.57480218559888        0.00331015574920
C            3.33266057084151       -1.62612038144072       -0.01196958594244
N            3.11011200375994       -2.85754279960199       -0.03899880553692
C           -0.06098440818882       -0.19550550439959       -0.00425604139578
C            1.13085404070186       -0.81771801233050       -0.00406382768878
C           -0.39932344946555        1.26243962269694       -0.01615979901534
O            0.35254389254018        2.20905633914664       -0.02601957883779
N           -1.76923994372230        1.30768870275805       -0.01093210815825
C           -2.57457545020183        2.50049199970154       -0.01700344546510
C           -2.32838065963879        0.03292775391165        0.00133510862033
O           -3.49758785245572       -0.23652840816870        0.00880662453417
N           -1.27212644439595       -0.85893776266758        0.00390971284733
C           -1.45115268889772       -2.28092974511268        0.01513988394897
H            3.58983582806513        0.88808947298279        0.95070390113531
H            3.65058472861532        0.90751919130926       -0.82716281982923
H            2.21765240251762        1.52311932147699        0.02009856977517
H            4.37246442416701       -1.30586672271815        0.00199408358789
H           -1.91883560679227        3.37035397533979       -0.01074458667299
H           -3.20803061087465        2.51385729431989       -0.90737663174447
H           -3.22284886002883        2.51098629918929        0.86255748246533
H           -0.99191449864842       -2.71633689142808        0.90535947951230
H           -1.00122580838187       -2.72867392252025       -0.87376256791289
H           -2.52221264741793       -2.48483428068219        0.02198908489816
H            2.19390964502470       -3.29099173441755       -0.05465087193560
