72
 energy: -99.307091470824 gnorm: 0.007320728264 xtb: 6.6.1 (8d0f1dd)
N           -0.96832982855930        3.30938526806632        1.20138956481563
C           -1.44366328794506        2.31123944468689        0.67621392244067
C           -2.73134028179113        1.98911134157376        0.05297152026229
C           -3.04441674303314        0.51581812669161        0.25606281751783
C           -4.03962598228417       -0.11210610361695       -0.49016266420379
C           -4.34332915745781       -1.44914071464975       -0.29612386035083
O           -5.28140927941678       -2.13918910209767       -0.97197688445483
C           -6.05634251478762       -1.47832776713511       -1.94445865519842
C           -3.63638266746792       -2.19487261777030        0.68658271948861
O           -3.99930655709856       -3.48662255450097        0.80012469167352
C           -3.37077851543173       -4.29367251350083        1.76804786892917
C           -2.66214702724014       -1.55839735959604        1.43745068437212
C           -2.36994571093346       -0.21707163587071        1.22301227594540
C           -2.59164149012275        2.35303223185375       -1.45072935616471
C           -1.81616860994583        1.37069716763381       -2.33028187915326
C           -0.33690082108441        1.21659755287503       -1.98251088844958
N           -0.14351754111166        0.13326823836562       -0.98635040771865
C            1.23969340329758        0.14626453554700       -0.39402507755587
C            2.34481141293566       -0.20335151381661       -1.39105416671425
C            3.68795414324005       -0.09930172471427       -0.71577353960376
C            4.28197371100907        1.13867123259191       -0.53424117009372
C            5.51343473395157        1.25005472639356        0.09274830986253
C            6.17778351192196        0.12082458340172        0.54813986130076
O            7.37621088665410        0.11026310055611        1.16239198462079
C            8.05190106528156        1.32944219841482        1.36763663550281
C            5.57776520508118       -1.15465677168201        0.36272312642925
O            6.29563869849417       -2.19851990841427        0.82327015454304
C            5.81389628255716       -3.50658270569052        0.62532736435858
C            4.34114682435938       -1.24028599376625       -0.25846975957578
C           -0.56952291511093       -1.13827009541882       -1.53306138279917
C           -3.90523647783903        2.81942337188405        0.69298103251687
C           -4.05036187721945        2.51351351498905        2.18057255626053
C           -3.76508747080492        4.32172765118986        0.48452510049881
H           -4.58795555151555        0.45471611806212       -1.22392864787108
H           -6.63452856739577       -0.65802139135965       -1.50797256156514
H           -6.73944607216411       -2.23064381505171       -2.33346152346208
H           -5.43575398718550       -1.09747773527071       -2.76193755435327
H           -3.54412859537542       -3.91594596789352        2.78030661213763
H           -3.82571384871220       -5.27705268697894        1.66821786166543
H           -2.29425767949360       -4.37371281293288        1.58637474705606
H           -2.12919309785400       -2.09260144308161        2.20719188208321
H           -1.63469174899390        0.26696971656422        1.85444014129374
H           -3.59622246346576        2.44651486954543       -1.86349340459960
H           -2.11942089280235        3.33414636991378       -1.52180603128290
H           -2.26493064492740        0.37409732393077       -2.29862944326485
H           -1.89161627922112        1.73422044643069       -3.35582404850464
H            0.06656122483220        2.14850304836411       -1.58079344687698
H            0.22057555138273        0.94692335762303       -2.88082441560506
H            1.24944207310735       -0.58278817768467        0.41950403048672
H            1.42195651051324        1.13839706120058        0.02637718224745
H            2.32090909697782        0.48625020467014       -2.23602900403014
H            2.19500555458061       -1.21729745048315       -1.76284647213027
H            3.79497697312672        2.03140318179603       -0.89728295994972
H            5.95371714727369        2.22615973767702        0.21308405652439
H            7.47445584370171        2.00511505344570        2.00614869685745
H            8.27842476467272        1.82644767178489        0.41950400081255
H            8.98176640414003        1.06732972957239        1.86839348610343
H            6.57742055567750       -4.16415815435000        1.03622197685925
H            4.87100536702525       -3.67242698544676        1.15622267041212
H            5.67983586593583       -3.72782013129365       -0.43798883277055
H            3.87825347516043       -2.20296846859736       -0.40763982932342
H           -0.06121932309065       -1.44048208103351       -2.43215123597474
H           -0.78897349434943        0.32932827864407       -0.20471998689543
H           -0.73380721538958       -1.89932787900916       -0.79203163654711
H           -4.81129142679929        2.47561360137655        0.18267169937879
H           -3.17782525108170        2.85696783066615        2.73091508937796
H           -4.18055932495158        1.44847389977281        2.35596582810201
H           -4.92169083517068        3.02980855931650        2.57436676443873
H           -2.83497126442668        4.68384143951041        0.91591347638618
H           -3.79822506758834        4.59398356140376       -0.56640907499864
H           -4.58670555305578        4.82763190445262        0.98510993406486
H           -0.04141774811870        3.40505653274731        1.58715231701150
