25
 energy: 34.947845218596 xtb: 6.6.1 (8d0f1dd)
C            3.52080876993527        1.10270715513061        0.09161479084134
N            2.43856933770994        0.14006292730942       -0.01273167281207
C            2.60986631395697       -1.28769062455227       -0.00702309633684
N            1.34569218949243       -1.83933308325910       -0.07080553011569
C            0.39208042480446       -0.87288432573335       -0.05199280875037
C            0.98008722044780        0.39178187559905        0.00160670041184
C            0.01774884985615        1.46350184604836        0.05385409246367
O            0.18515648206592        2.66488127271962        0.09989171920926
N           -1.69432146458298        1.08143110153415       -0.04023779402588
C           -2.65301410873029        2.16944952727011       -0.04131209584320
C           -2.13520255533536       -0.16446632651912       -0.08887053219642
O           -3.23950829733655       -0.62627358886095       -0.13622797785242
N           -0.95411300246488       -1.12649821209461       -0.06062668641849
C           -1.32805628281385       -2.53930800648369       -0.04054289117619
H            3.86122644386597        1.25699528814834        1.11814344452374
H            4.41692157874786        0.80147557187163       -0.48810340369170
H            3.22118280672199        2.07294507015514       -0.29443236198086
H            3.52025265879256       -1.89681338673491       -0.01973981442461
H           -1.99700346651626        3.03346453927798       -0.01402690324105
H           -3.30257956268475        2.20121183190462       -0.92570731139063
H           -3.33962653868689        2.17176028958856        0.81435897740236
H           -0.98411447369638       -3.05489410986721        0.86421879605684
H           -0.96146535488571       -3.07868810338778       -0.92079013197906
H           -2.40461438891650       -2.55656967384179       -0.05729517668082
H            1.09042785538803       -2.83022292624557       -0.07143439722513
