25
 energy: 71.144386288936 xtb: 6.6.1 (8d0f1dd)
C            3.94192334207977        0.82209725075547        0.11801407877191
N            2.82063336329917       -0.05573593555819        0.00845947718428
C            2.91941658570183       -1.41506319408901       -0.08633149125504
N            1.67147410317864       -1.95930555749710       -0.08735811349287
C            0.70471032510241       -0.97831039566868        0.00388126400703
C            1.43960903056569        0.26021934418433        0.09222863384169
C            0.77554766114339        1.38738796048337        0.18870341891166
O            0.37242396482670        2.49285376331908        0.33299906521310
N           -2.83775604362759        1.23436218407262       -0.12705996699865
C           -3.47128233855099        2.47753705833290       -0.07087763528432
C           -3.27425742157967        0.13105990770059       -0.11894899387253
O           -3.68597297948796       -0.94441208832166       -0.14479971754346
N           -0.57136870624212       -1.08037685428252        0.02740387126237
C           -1.06222095491884       -2.44865150076767        0.01781607579281
H            4.05513066861369        1.26020203632464        1.11740649221091
H            4.80984307350595        0.17655921075525       -0.04314189464788
H            3.99573917402850        1.64934381438113       -0.60242547176188
H            3.76631476046057       -2.03853864564514       -0.21381123064711
H           -2.64164929991501        3.20661119527551       -0.02515545672956
H           -4.12622359903286        2.59411481139061       -0.94168103438568
H           -4.13788486546956        2.52739270019753        0.79604160856576
H           -0.70551994848038       -2.89754730593699        0.94794329209612
H           -0.65260298499307       -3.00578916807947       -0.83555782906828
H           -2.13966597000279       -2.47506782969232       -0.03138405767752
H            1.45078198101471       -2.92740711152808       -0.18286081920756
