25
 energy: 80.240750943157 xtb: 6.6.1 (8d0f1dd)
C            3.66528143787601        1.03728383187605        0.09688909324336
N            2.55251567828605        0.10252667804204       -0.03650925772423
C            2.65617378515528       -1.28467063204448       -0.03429398512812
N            1.40307883618563       -1.81367769954043       -0.11247647150112
C            0.43884873497950       -0.85043220759882       -0.04261301550013
C            1.11968434445853        0.40424567214655        0.03172160111692
C            0.30380336132575        1.46541253538901        0.15477891189116
O            0.08754138180432        2.63377802889352        0.20654424722077
N           -2.08494583775883        1.12712212944701       -0.06921811190340
C           -2.92171773913229        2.27455265198906       -0.04377484423027
C           -2.52433935280725       -0.01979887435739       -0.10622850847488
O           -3.34778086379210       -0.84088815356836       -0.18465554947104
N           -0.85592462822747       -1.07575696383179       -0.02563684891345
C           -1.23202309758827       -2.50371001308589       -0.02133365365452
H            3.93331748229259        1.27260014399637        1.13290107014380
H            4.58066282848995        0.62124468876430       -0.37239519904112
H            3.48335681422551        1.99076318928411       -0.41063346505191
H            3.49384103247393       -1.97425158193579       -0.10867316419947
H           -2.19281063329683        3.09219757861524       -0.00922454094926
H           -3.56811115533154        2.33734549098447       -0.92396114741714
H           -3.59307462231657        2.29435756751871        0.81890528434340
H           -0.88713039106153       -3.00384891147781        0.89275856749094
H           -0.85750975705241       -3.05125310302239       -0.89649130928873
H           -2.30671839018543       -2.59252566775071       -0.04752864477025
H            1.11880505960027       -2.77783838686281       -0.15996746889440
