25
 energy: 50.531485025578 xtb: 6.6.1 (8d0f1dd)
C            3.56560082476310        1.08177778803789        0.09263300378138
N            2.46593367100349        0.12885611115780       -0.01585475747068
C            2.61055081057759       -1.28434367658963       -0.01252787430970
N            1.34941728664086       -1.82049996643572       -0.07832364604511
C            0.39201015114640       -0.85458555470233       -0.05982460501462
C            1.00800378881184        0.40319270277599        0.00353419141246
C            0.08790856317920        1.46682511001688        0.07417488609871
O            0.15612350451542        2.66752674851983        0.14070671846091
N           -1.80323390981534        1.09419282397762       -0.04660743201505
C           -2.73424771606715        2.19613890281616       -0.03945363122362
C           -2.21646272671892       -0.13793711109167       -0.09799052438728
O           -3.27003018087645       -0.69042728639562       -0.16149953765849
N           -0.94906940115363       -1.09927782180132       -0.05815811476647
C           -1.30187472026851       -2.52332281046993       -0.03451412235437
H            3.88443233909866        1.26195424452314        1.12283372662619
H            4.47331279697086        0.74508455485010       -0.45246075932942
H            3.30767254282848        2.05101014462560       -0.33223948881995
H            3.50391823699588       -1.93376874317689       -0.04194033533082
H           -2.05786327294750        3.04879154228008       -0.00913983441986
H           -3.38573067739723        2.23863890987803       -0.92229203037421
H           -3.42056440212162        2.20236381580022        0.81717912812297
H           -0.95186644831200       -3.03011065529764        0.87447890793119
H           -0.92719327787811       -3.06428021112150       -0.91243339798173
H           -2.37683189789027       -2.57547547126390       -0.05419079539950
H            1.07969677158731       -2.80689742776784       -0.10245140189435
