25
 energy: 75.136545847338 xtb: 6.6.1 (8d0f1dd)
C            3.86594183864436        0.88891030838047        0.11284971393451
N            2.74570898048278       -0.00551903671881        0.01333950526320
C            2.84156770443887       -1.36617502506213       -0.08019390683569
N            1.59882838877354       -1.91398046077635       -0.08249185770208
C            0.62877505104804       -0.94026804423803       -0.00344425692846
C            1.35232771500641        0.30318084614710        0.08038988742546
C            0.63180437494924        1.39835800402092        0.16356855226308
O            0.25299951643807        2.51312982114727        0.34524266533430
N           -2.62968986829618        1.19591033969612       -0.11231483119177
C           -3.32059648144860        2.41306790216246       -0.06279152602335
C           -3.08564478960797        0.09553489443749       -0.11534307187830
O           -3.57803921047736       -0.94457230305004       -0.15003183646067
N           -0.64780919659384       -1.07551810459153        0.01983425933253
C           -1.10089985736623       -2.46957460946127        0.01048279306557
H            4.01975154040643        1.27321899291067        1.12628031550209
H            4.75039581963602        0.29690275908090       -0.13170123569606
H            3.86436777028628        1.75780913044802       -0.55524667126662
H            3.66822436738016       -2.00654396699117       -0.24424227773942
H           -2.52139849671845        3.17618201056557       -0.01740563300450
H           -3.97986190774871        2.49650297579363       -0.93367082365201
H           -3.99340025670773        2.43546653784023        0.79993926700370
H           -0.75446564245860       -2.92798016013186        0.94060218452173
H           -0.70577902184365       -3.02266273358032       -0.85141006903044
H           -2.17238224941212       -2.53587479996928       -0.02960311832767
H            1.35971682088798       -2.87676968152606       -0.18743043873106
