25
 energy: 79.611202973970 xtb: 6.6.1 (8d0f1dd)
C            3.80199509875695        0.95047823790818        0.10692703083597
N            2.67423398632996        0.04480599842463        0.00315148881936
C            2.76127775889234       -1.32095999868110       -0.06915596422725
N            1.52121081999275       -1.86664253196308       -0.08254738826014
C            0.55140817755575       -0.89789707367522       -0.00777018341573
C            1.26529065303819        0.35199080529492        0.07634982275537
C            0.50646564900857        1.43097948633074        0.14671958750642
O            0.15922231008447        2.55821337578995        0.32251961113939
N           -2.42319206393062        1.16667463334946       -0.09458562854184
C           -3.16609002911884        2.35938886916890       -0.05655191078527
C           -2.88662806711958        0.06331197211091       -0.10767122986149
O           -3.46982639946160       -0.93027524353915       -0.15616571585622
N           -0.72592218199796       -1.07298060667920        0.00853526931341
C           -1.14018026949127       -2.49081894663393       -0.00136592189873
H            4.00398914406780        1.25836040118843        1.14816286844063
H            4.70572571857286        0.41495663618886       -0.24680735643987
H            3.72937495531691        1.86570010550235       -0.50729116767515
H            3.56399554718159       -1.98695483430857       -0.24540446383631
H           -2.39591513616359        3.14806019945876       -0.01866997452359
H           -3.82218368323006        2.42045270118614       -0.93025305549896
H           -3.84029017495952        2.36987104179510        0.80390649675639
H           -0.79784084063528       -2.96537408779304        0.92380250730623
H           -0.75412889133415       -3.03963220194866       -0.87038209474276
H           -2.20920566489681       -2.59175149658579       -0.03518451644588
H            1.26189816737660       -2.82543496626849       -0.19506179345460
