25
 energy: 77.521711884146 xtb: 6.6.1 (8d0f1dd)
C            3.83668131751440        0.92155412524926        0.11057628789305
N            2.71092494885675        0.02065668188125        0.01054433501533
C            2.80191587136588       -1.34265692738546       -0.07618523967733
N            1.56077304374240       -1.89015857233298       -0.08243141711707
C            0.59036789778756       -0.91936320510478       -0.00587498498117
C            1.30960588396711        0.32700783467325        0.07764519562645
C            0.56796235916310        1.41149429134538        0.15871653034068
O            0.20580114563828        2.53451151160990        0.33046634681501
N           -2.52590789436890        1.17989423600650       -0.10204303869902
C           -3.24325366020042        2.38484794456201       -0.05939086040660
C           -2.98858304862803        0.07932705499998       -0.10891799608737
O           -3.52363850018333       -0.93966481848087       -0.15092093749270
N           -0.68657901538143       -1.07438047059886        0.01441270663299
C           -1.11929125523988       -2.48128600420465        0.00316985012207
H            4.01509369324122        1.25828034342475        1.14410069181373
H            4.73045150376297        0.35496055730800       -0.19982303647574
H            3.79979981696845        1.82213374331090       -0.52832078592510
H            3.61642051985154       -1.99543339281831       -0.24875929550043
H           -2.45885611809574        3.16183483755787       -0.01719915483830
H           -3.90105953808270        2.45423279376940       -0.93192272729252
H           -3.91798455111452        2.39972473715703        0.80101631840120
H           -0.77815556717122       -2.94516267954969        0.93229029608789
H           -0.72759926879623       -3.03458084529094       -0.86100976818847
H           -2.18864968477149       -2.56642254704178       -0.03367463746838
H            1.31135739864503       -2.85057264715908       -0.19287590928386
