25
 energy: 63.744867674483 xtb: 6.6.1 (8d0f1dd)
C            4.12538676111301        0.70197885532106        0.11369823794219
N            2.98897084352128       -0.15368104808736        0.00596817340242
C            3.08154491581940       -1.50902920521664       -0.08417108924886
N            1.82714820050799       -2.04499332903609       -0.08458069560108
C            0.85907237579186       -1.05605882442274        0.02249144252990
C            1.61794031295125        0.18151922872707        0.10038649588714
C            1.05100519818309        1.36229388781681        0.19499409578596
O            0.61214639230615        2.45059936579652        0.34155200411756
N           -3.25955136430984        1.31932834682098       -0.14812898486299
C           -3.75136145971972        2.62512003881646       -0.08655435832003
C           -3.64382058269041        0.20223018209469       -0.12925161006386
O           -3.91318077967875       -0.92172454764355       -0.13670881394193
N           -0.41366164793547       -1.12268921682939        0.05167858314563
C           -1.02182665710368       -2.42019287850014        0.00052310748281
H            4.15005258240923        1.26921577738879        1.05052611081574
H            4.99962656400196        0.02152079100586        0.12954675601204
H            4.27259381935540        1.41548739215623       -0.71783134267835
H            3.96526227029004       -2.09540351374286       -0.16721774275871
H           -2.86401522140554        3.26980131090448       -0.04632247534474
H           -4.38344184587628        2.82990934875993       -0.95743149890100
H           -4.38709596195641        2.75550427348562        0.79432516275451
H           -0.74950882761227       -2.99088847540885        0.89670461817020
H           -0.66717959411972       -2.97128350382068       -0.87859832758389
H           -2.10272619232675       -2.33478752921528       -0.04486341418453
H            1.63341533117314       -3.02382543967606       -0.16783698749286
