25
 energy: 21.984581085500 xtb: 6.6.1 (8d0f1dd)
C            3.47349707049410        1.11980817533048        0.09009675373718
N            2.40606464879062        0.14579114534271       -0.00570746649783
C            2.61161930512950       -1.28553810739674        0.00524103344690
N            1.34569480480655       -1.85418072370622       -0.06054527730545
C            0.39090812524346       -0.89351659249817       -0.04173741233369
C            0.94765421005761        0.38485250522842        0.00195713987173
C           -0.03319079079215        1.46216770783591        0.05196331405323
O            0.20991063041524        2.65909328680914        0.07227456941566
N           -1.60758993202902        1.07212304545873       -0.02870972308989
C           -2.57979323080196        2.14913354098305       -0.04170449988535
C           -2.07293774752809       -0.18469804708976       -0.08465298685125
O           -3.20955604340528       -0.57434762907838       -0.11743611321295
N           -0.95965437756481       -1.15397420031635       -0.06065782357824
C           -1.35496386451024       -2.55515033142373       -0.04496334583175
H            3.83787897091041        1.25091211160600        1.11119572918021
H            4.35566161109138        0.85128808171255       -0.52340560820561
H            3.13433704099491        2.08863182600047       -0.25817103086754
H            3.53643015622415       -1.85737168202358       -0.00334567065994
H           -1.93457641002260        3.01909508013187       -0.01598592727764
H           -3.22192364142525        2.17234343350044       -0.93003689879814
H           -3.26262480803479        2.14757714660886        0.81439883700967
H           -1.01641995268978       -3.07738509059168        0.85668421039764
H           -0.99454108183699       -3.09250477415481       -0.92749812625946
H           -2.43248571548329       -2.54143920962539       -0.05984984521085
H            1.13194245261162       -2.85118524567351       -0.05556921244229
