25
 energy: 69.349717900610 xtb: 6.6.1 (8d0f1dd)
C            3.98777591902343        0.79508460775108        0.11112563822192
N            2.86221132146745       -0.07808969930954        0.00382673515186
C            2.96055136984299       -1.43755165884832       -0.08904571948089
N            1.71047681490452       -1.98159464133710       -0.08803650376462
C            0.74371027230162       -0.99858728580741        0.00988214551024
C            1.48410450996597        0.23918048613770        0.09528224019341
C            0.84487692768872        1.38023012490307        0.19137296273431
O            0.42945542896132        2.48005643595058        0.33601336832098
N           -2.94275799945884        1.25432373148322       -0.13429989329905
C           -3.54302756029589        2.51293856282348       -0.07511975925360
C           -3.36931437693281        0.14880883600692       -0.11944639935815
O           -3.74267574454228       -0.94128594790945       -0.14281843739663
N           -0.53205894002656       -1.08752698907780        0.03535214479445
C           -1.05146383013353       -2.43777393209995        0.01463292859261
H            4.08013410794745        1.26040802963246        1.09983345575863
H            4.84951235506200        0.12311845859332       -0.00168352685409
H            4.07086033948271        1.60521943475998       -0.64239354644536
H            3.81661800935509       -2.05323184664757       -0.19973724632608
H           -2.69840399653720        3.22200337259644       -0.02998155608484
H           -4.19380313652561        2.65083506119939       -0.94573530579620
H           -4.20367687084712        2.58225151089660        0.79455751501122
H           -0.71152316791071       -2.91661445437870        0.93364476414712
H           -0.63622661089332       -2.98701309400008       -0.83870959127029
H           -2.13078404972872       -2.44106603177967       -0.03695680239595
H            1.49806556142164       -2.95261206660282       -0.17886691354626
