25
 energy: 11.627937792674 xtb: 6.6.1 (8d0f1dd)
C            3.42430348237636        1.13253790729760        0.08882197715227
N            2.37544944443988        0.14131135403479        0.00063092824380
C            2.60124178350239       -1.27448153552515        0.01538682454724
N            1.34272310745057       -1.87159330146090       -0.04113559117982
C            0.38463263949683       -0.92203062070162       -0.03281506881289
C            0.92419869458238        0.36083135466021       -0.00440541815529
C           -0.05040868405011        1.45127528923666        0.03597799721843
O            0.25006838766114        2.64012278466221        0.05140806634754
N           -1.53932352940377        1.05324220796153       -0.03033809500040
C           -2.50954017615250        2.13322647112466       -0.04409249034804
C           -2.02352571774216       -0.20689314753501       -0.07785917945163
O           -3.17974644354221       -0.53845948138207       -0.10412654565354
N           -0.96672285658286       -1.18485946895380       -0.05406725100166
C           -1.38284777381709       -2.57333957023165       -0.04865334958576
H            3.81306559095848        1.24204175832986        1.10367072235086
H            4.29045711754751        0.89830257071672       -0.55735658519798
H            3.04554016427701        2.09854611967441       -0.22052112602710
H            3.54235573138912       -1.81361800785918        0.00934898608029
H           -1.87100838848157        3.00764807060588       -0.01824735668305
H           -3.14415095172868        2.15167073014050       -0.93543901621888
H           -3.18700880453594        2.12948924559581        0.81407661379354
H           -1.04894329785369       -3.10176321238070        0.84959603697013
H           -1.02777957455214       -3.10706168487704       -0.93462441232278
H           -2.46142028430927       -2.53155479262526       -0.06268590930047
H            1.17350591560496       -2.87297638890546       -0.04190039577137
