25
 energy: 59.876009522729 xtb: 6.6.1 (8d0f1dd)
C            4.17288012380200        0.71395233555080        0.08503573168720
N            3.09753792737856       -0.22258149989529        0.03909544424665
C            3.20120652496294       -1.55900291456274       -0.07074546699534
N            1.96232667132948       -2.11035545201238       -0.07826317563847
C            0.97479979337450       -1.12785190151571        0.03425437044755
C            1.73635828861001        0.12361520838350        0.11441880328691
C            1.26266523175014        1.34808718129398        0.22429497581786
O            0.76938742743456        2.41642797917227        0.31794921236567
N           -3.63016809145618        1.38193910404657       -0.17124701125585
C           -3.96169755284208        2.74848157277268       -0.10349965572599
C           -3.93041639281703        0.23898079815389       -0.13236267968769
O           -4.02026501614567       -0.91903265293234       -0.13599094495808
N           -0.28680933946717       -1.22883190703082        0.06399271246290
C           -0.99610438916076       -2.47104964049357       -0.01078557386843
H            4.17854666347879        1.23716746038620        1.04456213042174
H            5.12049535510549        0.19309206022457       -0.04204143485268
H            4.06014587498515        1.45256604513331       -0.71214608830030
H            4.11954503794883       -2.09054938470222       -0.13914376073025
H           -3.02832172394422        3.31105150862270       -0.07363375495289
H           -4.53110232828705        3.04841876945005       -0.98647628721838
H           -4.54372674093309        2.97013534839782        0.79378991688036
H           -0.81396643157816       -3.08840179204145        0.87539332014283
H           -0.73676881809437       -3.05270761401160       -0.90267218587845
H           -2.05733263707813       -2.22727493388510       -0.04888758647574
H            1.79299884661804       -3.09724688976173       -0.15785709902605
