25
 energy: -2.361844094738 xtb: 6.6.1 (8d0f1dd)
C            3.33225430401748        1.15459535017736        0.08763060872470
N            2.33678653786176        0.12210481670715        0.01765994126077
C            2.60090328042774       -1.25601315817574        0.02671205978114
N            1.37922590466481       -1.90982295353617       -0.01137839720428
C            0.39049351454970       -0.99629269623683       -0.01819095912176
C            0.92287065488308        0.28658791041532        0.00341504519373
C            0.02531443185057        1.39965864665394        0.02027815468063
O            0.37161707940885        2.58618614206941        0.02257359895681
N           -1.39936753528257        1.03143294095066       -0.03324147853386
C           -2.35957194134826        2.12338764778334       -0.04813154538791
C           -1.92342335437545       -0.21480377968106       -0.06355129182698
O           -3.10541631298131       -0.46005943631163       -0.08579126533812
N           -0.95684159597184       -1.24763751418940       -0.04064044232154
C           -1.43197084582091       -2.60925148996019       -0.05413047935219
H            3.76666861401829        1.22638163012442        1.08752596020014
H            4.15467683654394        0.97793903291958       -0.62067901328958
H            2.87030081930974        2.10527311663516       -0.14903901671748
H            3.56343806015413       -1.73007803209355        0.02977493175864
H           -1.74098804066944        3.01275059531270       -0.02316796380111
H           -2.98378054688212        2.11981327964723       -0.94471002279848
H           -3.02974862682898        2.10036659849963        0.81378065311669
H           -1.11131106592652       -3.14939110302877        0.84018524823459
H           -1.08775342324227       -3.14110790197009       -0.94471403946507
H           -2.51416033264743       -2.52808528356847       -0.06917889589349
H            1.27140833841945       -2.91350176384854       -0.02439646164224
