  72
        -99.37738416
 N         -2.0998760049        2.2722558039        2.6701116565
 C         -2.0172163852        1.3938606349        1.7827257366
 C         -2.9332417392        1.3253836770        0.5937467980
 C         -3.4077285766       -0.1757980525        0.4497947074
 C         -4.3659404242       -0.3518749148       -0.6742636885
 C         -5.5591603393       -0.9923582588       -0.5521629261
 O         -6.4661320418       -1.1717270984       -1.5361875847
 C         -6.2209966540       -0.6040574780       -2.8017494368
 C         -5.9498063508       -1.5694856141        0.7086509745
 O         -7.1297054070       -2.1863104209        0.7143994939
 C         -7.6195750490       -2.7643946493        1.9050074004
 C         -5.0861697298       -1.4395723256        1.8097837557
 C         -3.9128586430       -0.7564137492        1.7167003462
 C         -2.0328441320        1.6805939335       -0.6350272793
 C         -1.0343181581        0.6348028316       -1.0113889798
 C          0.2512759724        0.6839059694       -0.6122436449
 N          1.2126261339       -0.2347103995       -0.8751152959
 C          2.5682537784       -0.0532422566       -0.4291165877
 C          3.5250396551        0.3740313314       -1.5622264455
 C          4.9466082600        0.3524959410       -1.0788840925
 C          5.6450047345        1.5223206818       -0.8245186581
 C          6.9509441900        1.4847690633       -0.3592688127
 C          7.5840260425        0.2723105800       -0.1236973461
 O          8.8399572275        0.1138582610        0.3319972963
 C          9.6312234304        1.2514963163        0.5864699931
 C          6.8740241421       -0.9354542164       -0.3758075644
 O          7.5583728820       -2.0675026907       -0.1176854319
 C          6.9383913255       -3.3123179954       -0.3338237273
 C          5.5748028507       -0.8712606190       -0.8519056961
 C          0.9215205563       -1.3777283920       -1.7025328239
 C         -4.1362912014        2.2997418300        0.6550760063
 C         -4.9801244389        2.1354356032        1.9169359931
 C         -3.7175838735        3.7673292714        0.5455995172
 H         -4.0621036253        0.0455732391       -1.6280858803
 H         -6.1097207832        0.4826469511       -2.7368698687
 H         -7.0958050896       -0.8416656007       -3.4034468556
 H         -5.3317065124       -1.0367947459       -3.2701957426
 H         -7.7534385896       -2.0115832426        2.6869421365
 H         -8.5860491920       -3.1921182214        1.6458349516
 H         -6.9575911243       -3.5559845085        2.2668253279
 H         -5.3722119625       -1.8674441101        2.7580792306
 H         -3.2865480456       -0.6547080175        2.5892333134
 H         -2.6874160797        1.8761814402       -1.4857909675
 H         -1.5079571450        2.6052035635       -0.3932855329
 H         -2.4736844531       -0.6980517523        0.2035450750
 H         -1.3760199795       -0.1564885886       -1.6607673183
 H         -1.2367944877        0.6167475762        1.7608965601
 H          0.5827564419        1.5126955960        0.0003774689
 H          2.9266425052       -0.9952527923       -0.0000023892
 H          2.5894150498        0.7033887018        0.3576754646
 H          3.2548158515        1.3737407603       -1.9034915567
 H          3.4131687377       -0.3151775806       -2.4015842289
 H          5.1767290296        2.4788891693       -0.9984668498
 H          7.4709570834        2.4118610513       -0.1815075929
 H          9.1887110856        1.8822239007        1.3633467177
 H          9.7851063623        1.8426350420       -0.3211591135
 H         10.5886383667        0.8684931228        0.9347098007
 H          7.6777448023       -4.0600335517       -0.0535070138
 H          6.0488647624       -3.4314544551        0.2933155922
 H          6.6669300978       -3.4488211407       -1.3852334314
 H          5.0370480957       -1.7821725052       -1.0644322324
 H          0.6374376242       -1.0733880724       -2.7135677849
 H          0.1017520772       -1.9602298579       -1.2741282752
 H          1.7987583807       -2.0160651942       -1.7639336608
 H         -4.7706919979        2.0594592193       -0.2077908188
 H         -4.3994479078        2.4172261841        2.7898834719
 H         -5.3269265750        1.1143328613        2.0350311177
 H         -5.8502660643        2.7843806007        1.8569682610
 H         -3.0078435351        4.0118532241        1.3298007462
 H         -3.2824228180        4.0002245481       -0.4220426274
 H         -4.5945206771        4.3968983378        0.6726410906
 H         -1.4099452244        2.2517358448        3.4149407648
