72
 energy: 66.744260703545 xtb: 6.6.1 (8d0f1dd)
N           -2.06659750155904        3.26399645753340        2.40029099411971
C           -1.94957460504388        2.29535125036441        1.61931807571997
C           -2.89286068637266        2.18180386315749        0.46473509458074
C           -3.86838661298274        0.78653689758908        1.07520584653724
C           -4.72230017542502        0.41938287824768        0.01994756745316
C           -4.88271947517267       -0.88422962158248       -0.39612813447576
O           -5.55567008600931       -1.27491429086575       -1.51588570014406
C           -6.28934955498914       -0.32074550182512       -2.23206217494017
C           -4.22223494737338       -1.92118222685947        0.29559239379363
O           -4.35431582052153       -3.17638212396121       -0.21614599530143
C           -3.90996144454555       -4.23875731720323        0.59240651365866
C           -3.58382669397503       -1.61445797511788        1.48222981429774
C           -3.41124764837980       -0.27395070482392        1.86595765023364
C           -2.30176082870595        1.92838710107365       -0.90444644775200
C           -1.48031745307259        0.72028766147772       -1.33045114588656
C           -0.05279887719103        0.68912421384165       -0.97296645761218
N            0.56666096457671       -0.33235106958612       -0.27417758520332
C            1.98818902541242       -0.24356425628232       -0.08028756134420
C            2.89575246952986       -0.71182580223941       -1.24574589815009
C            4.34097375489101       -0.54769721429742       -0.87039313947699
C            5.00336017641471        0.65179271950237       -1.07027846711142
C            6.32134396793722        0.81692948573970       -0.65883612050476
C            7.00637767633061       -0.20908043945780       -0.02445084572114
O            8.30166115236585       -0.14705504391877        0.41025311260484
C            9.01799739370385        1.04018253417257        0.18184820767476
C            6.33632384683301       -1.43262161282944        0.20113422598694
O            7.05964247711918       -2.40277390821694        0.83174633654433
C            6.44357034368680       -3.63974492603953        1.06713338959089
C            5.02884663032335       -1.58106580353683       -0.23340251367224
C           -0.05053937011467       -1.61948521319367       -0.28245527911418
C           -3.77473459946565        3.44355939046989        0.39133789489991
C           -4.39011368635937        3.61200944644950        1.77613512520221
C           -3.13954678071302        4.69573418264410       -0.12649433328516
H           -5.20637941121147        1.20173503734361       -0.53824796185411
H           -7.05937470520805        0.14197074582445       -1.59217825913144
H           -6.81320235006281       -0.85349655952771       -3.02187672648892
H           -5.60175892258752        0.42727204902586       -2.64442901067073
H           -4.27718483188555       -4.30602677053408        1.61288848501574
H           -4.23484406720414       -5.12484763685448        0.07904242091586
H           -2.83803175619872       -4.21221298623587        0.67165855455460
H           -3.12381062691350       -2.42863711242722        2.03854999399088
H           -2.85907380022105       -0.08769704654424        2.76862871521960
H           -3.14270118929679        1.97259149556634       -1.60755683867405
H           -1.64693081522779        2.73062542986440       -1.19722281592893
H           -1.96336023873619       -0.11915972203520       -0.86250761141279
H           -1.66309392804826        0.68279055538225       -2.42215733268595
H           -1.20568578451965        1.48556403898203        1.71050540378816
H            0.55297862057295        1.47773759771035       -1.35821676522794
H            2.23835582225610       -0.83707643981800        0.79560565706551
H            2.21555601705996        0.80302930384414        0.13503015023135
H            2.66539720891680       -0.11494034415194       -2.12875355981448
H            2.67314217018989       -1.75644782302885       -1.46552856429648
H            4.49000935890802        1.47140620620227       -1.55258293089143
H            6.81297556399484        1.76298029309511       -0.83658038203184
H            8.56416640793975        1.89169108259751        0.70177755742834
H            9.08463078489858        1.27638822976073       -0.88757605068251
H           10.01352760177255        0.85297771813890        0.59731107243862
H            7.20854566272041       -4.24510319165452        1.55271095790067
H            5.57799662423353       -3.53155058731446        1.72346280038468
H            6.12331574572128       -4.13128290072976        0.14252803791961
H            4.51172755715661       -2.51815425681169       -0.08010737798404
H           -0.25090412895490       -2.02273344546348       -1.28159479444303
H           -0.97901294332493       -1.57276676187303        0.28502004736325
H            0.61874593269401       -2.27298835032144        0.23276447333231
H           -4.60120000631381        3.32091360316173       -0.29670436289746
H           -4.27675796376421        2.49083396136434        2.14972820930211
H           -5.49467401892611        3.62329585306225        1.70415565944801
H           -4.09975619255541        4.59155066602351        2.18969572703767
H           -2.20896766857695        4.91864591160644        0.36863940017595
H           -2.99512882613410        4.59002318094060       -1.17724949294014
H           -3.86277441318952        5.49258272880080        0.04503750604727
H           -1.59519765189130        3.23999615680215        3.29170763870167
