72
 energy: 92.121439227410 xtb: 6.6.1 (8d0f1dd)
N           -2.04602622734881        3.22598529609494        2.39462418501054
C           -1.93801608336600        2.27801227203871        1.57863661629111
C           -2.83242023458817        2.24643484046498        0.41795677294209
C           -3.96873178538942        0.74773949637296        1.18209855953155
C           -4.77162726087064        0.41163340964898        0.07861665640831
C           -4.87562184127798       -0.88358228698620       -0.38420636479892
O           -5.52072706152144       -1.25592872990402       -1.53176344633116
C           -6.27539185026868       -0.30033465008041       -2.22410765805863
C           -4.19724060936796       -1.92315168860980        0.28193174102580
O           -4.29311219914463       -3.16807702311321       -0.27219125093059
C           -3.84271840232042       -4.24345208775373        0.51515361263914
C           -3.57424198073280       -1.64506754248161        1.48507135972210
C           -3.45957047712960       -0.31819725510289        1.92277877706365
C           -2.32232969631258        1.90359429642069       -0.93591802435967
C           -1.51242493261571        0.66918104732886       -1.28059797456714
C           -0.08952636083782        0.65474709338280       -0.91842341684615
N            0.55285060996830       -0.34884046497886       -0.23917833681334
C            1.97600607624739       -0.24926241782987       -0.04917408810884
C            2.87119108430372       -0.72325379734449       -1.22284563506286
C            4.32001185941898       -0.55358748725301       -0.85764967027391
C            4.97959659184946        0.64695154507420       -1.06562376798314
C            6.30212874602684        0.81691115929549       -0.66708053513505
C            6.99500759357833       -0.20785701063383       -0.04000901956360
O            8.28996770706025       -0.14287500494731        0.39154960371140
C            9.00485015270937        1.04650664978111        0.16521878110868
C            6.32984270744501       -1.43514278715497        0.18685366113540
O            7.06397016335859       -2.39997440812011        0.81358413832736
C            6.45794844983865       -3.64073275808740        1.05776061296947
C            5.01623207355196       -1.58884541478087       -0.23095600609606
C           -0.05160256332022       -1.64345159730000       -0.23901956163400
C           -3.73739756346477        3.47421215394003        0.37300776347650
C           -4.30834868566048        3.64257707478335        1.77261473802320
C           -3.10576870628627        4.71243910744981       -0.18687544980935
H           -5.27288187885040        1.19546628395809       -0.46716066954897
H           -7.07094203431349        0.11196225773790       -1.58031605787855
H           -6.77158302157692       -0.82201031835397       -3.04126636822375
H           -5.60458592439495        0.48393988645052       -2.60026927289887
H           -4.22644939355311       -4.35715889704936        1.52712580005147
H           -4.13735199357118       -5.12108117645936       -0.03080875958220
H           -2.77282973071698       -4.18983126584096        0.61384516324986
H           -3.10892649648776       -2.46468510344700        2.02639851142334
H           -2.92701930198582       -0.12347111617172        2.83559689840276
H           -3.18081135575629        1.91380735120766       -1.61419759277701
H           -1.68150391153300        2.69747544758352       -1.28473261767102
H           -1.99921858091116       -0.14747716920260       -0.77828392213727
H           -1.70133822979871        0.58502200352938       -2.36432146558460
H           -1.27201426618482        1.44093007183461        1.79046735735707
H            0.48653056922219        1.47399676798948       -1.27361282792314
H            2.23569495093755       -0.83061740428681        0.83606483129934
H            2.19515070052182        0.80132105477740        0.15135951207056
H            2.63664985073085       -0.13372516153757       -2.11126475807871
H            2.65385098344839       -1.77106850778144       -1.43741668606524
H            4.46168827097709        1.46609944638349       -1.54486477016834
H            6.79002647067733        1.76485806312366       -0.84627816350683
H            8.55128803069558        1.89517743233956        0.68970428743053
H            9.07028157351578        1.28545710010317       -0.90343070704805
H           10.00218515479226        0.86050512926134        0.57539638795250
H            7.22902070925780       -4.24055079237270        1.54047113782221
H            5.59687379835710       -3.53676329281423        1.71984466714847
H            6.13716073326411       -4.13636240691047        0.13564064915890
H            4.50641368538495       -2.52960113882292       -0.07191663873414
H           -0.26210501946612       -2.05405297928538       -1.23331489226808
H           -0.97402675238828       -1.59744155520211        0.33715536930352
H            0.62873848226212       -2.29063061117947        0.27029073113321
H           -4.58474617832402        3.35394589816923       -0.29233889072932
H           -4.30459398188198        2.39247116808567        2.10391231192796
H           -5.40760402591119        3.76802604175422        1.73301160175503
H           -3.93385356505403        4.57321841618366        2.22077995113477
H           -2.16525882067360        4.93546872410811        0.28722733555904
H           -2.98360081529707        4.57459802367481       -1.23888663416440
H           -3.81616577984071        5.52049973759086       -0.02121266959511
H           -1.66121653642870        3.11942257865527        3.31948247468495
