72
 energy: 42.227937233651 xtb: 6.6.1 (8d0f1dd)
N           -1.99391474729816        3.28814558139657        2.39057368522405
C           -1.87829732995832        2.31201827750113        1.60284857845443
C           -2.90904357453329        2.13510501818915        0.50014493778970
C           -3.75795259203671        0.80100224720412        0.94099692927707
C           -4.63563630116687        0.41258136525704       -0.08361424243706
C           -4.88206194204509       -0.89983582280931       -0.42145234422286
O           -5.62008080563525       -1.31184918508983       -1.48864832206986
C           -6.31411197555920       -0.36282789726595       -2.24689267908273
C           -4.26824108561781       -1.92557029612036        0.32359467343579
O           -4.47735976392328       -3.19794977978116       -0.10660869045671
C           -4.04521624008520       -4.22850876721492        0.74565739392121
C           -3.59277911146006       -1.57882627407611        1.47658688590170
C           -3.32537031631909       -0.23508233969271        1.76821340434993
C           -2.24672627922514        1.99809893768690       -0.89145114295060
C           -1.40852769696362        0.82956923922085       -1.43098355914089
C            0.03017958054141        0.77721925692655       -1.07771135568867
N            0.59507861122377       -0.27810731331003       -0.35717499626795
C            2.01540353127489       -0.22177146992123       -0.14074890383868
C            2.94466867834906       -0.68168906837044       -1.28769973121989
C            4.38479592385708       -0.53038821820106       -0.89228784285969
C            5.05226538425383        0.66455365615390       -1.07778361258136
C            6.36093542709268        0.81778874880764       -0.63969046714465
C            7.03037190557708       -0.21139866487558        0.00646097700595
O            8.32360354139242       -0.15603513445056        0.44800915694355
C            9.04426842662987        1.02729101154768        0.21529698137237
C            6.35098959939154       -1.42882476454387        0.22495379058969
O            7.04962914935649       -2.40750741012059        0.86711081654017
C            6.41417950697488       -3.63765239348403        1.08530610694490
C            5.05360822110160       -1.56119099935189       -0.23683144291444
C           -0.04868367939289       -1.55893430994173       -0.36901250427281
C           -3.82563962107819        3.38597860606001        0.42336493541272
C           -4.50394556967038        3.55702295611510        1.77537967270744
C           -3.20683699053933        4.67269534990451       -0.00870885165835
H           -5.08693707178695        1.18290960169506       -0.67846234877823
H           -7.02814360126109        0.19600430927727       -1.62127002654237
H           -6.89417896117733       -0.91107322527574       -2.98174258099029
H           -5.59566951757499        0.30754312780148       -2.72735712151735
H           -4.37972566650912       -4.19529230122466        1.77698544457753
H           -4.42727250443298       -5.12978165375111        0.30201846172333
H           -2.97055491303106       -4.25602488576785        0.79116877018188
H           -3.15488075347136       -2.37994418616608        2.06776183694634
H           -2.72432901885390       -0.04407955296316        2.63197873072423
H           -3.07099691227683        2.09394647912944       -1.60094156694277
H           -1.55310495824343        2.79384371510076       -1.06211444919418
H           -1.89183265392323       -0.04411474844994       -1.02165797939473
H           -1.57507622408695        0.86876369000333       -2.53034933496795
H           -1.04613876648022        1.54755930266432        1.55140016851337
H            0.70097903599224        1.51824483910155       -1.50579832855127
H            2.23760305689026       -0.84449814188306        0.71689832577191
H            2.26153706101397        0.81389234488686        0.10648628865515
H            2.72647753553135       -0.07083923709028       -2.16115888505766
H            2.71209697820853       -1.71932862998697       -1.51950245170328
H            4.54888336455957        1.48568263915565       -1.56536417480556
H            6.85871306652137        1.76037942803600       -0.81237293636665
H            8.59002607645132        1.88378786190967        0.72657565813823
H            9.11255023495444        1.25665174542031       -0.85563396899108
H           10.03680427705728        0.83897139495144        0.63972103285880
H            7.16663396377674       -4.25489995505641        1.57554151080873
H            5.54059625167311       -3.52175566861294        1.73159268933922
H            6.09546360187157       -4.11955594848560        0.15509707646926
H            4.51763175579285       -2.48417070474804       -0.09028170950011
H           -0.23131757708977       -1.94817847301616       -1.37662929352773
H           -0.98796092323271       -1.51524581366439        0.18221792444664
H            0.59672390934877       -2.23280563362450        0.15278900830932
H           -4.61229840254261        3.24330351237599       -0.30625361653357
H           -4.18615700479519        2.62695438873869        2.24644370876541
H           -5.55067126989638        3.29005789399547        1.70442468161477
H           -4.41159632817461        4.57447242776092        2.16468286294115
H           -2.29711984800373        4.88436863483921        0.53222124901463
H           -3.01814677855693        4.63015538518080       -1.05318801093448
H           -3.96175112412880        5.43591729261656        0.18027883203754
H           -1.41490697091701        3.34729537877330        3.22189784908998
