72
 energy: 13.093207158109 xtb: 6.6.1 (8d0f1dd)
N           -2.43400291738503        3.11130715119262        2.32831159057820
C           -1.97629986124784        2.27117665178381        1.31649932368815
C           -2.55595603435860        2.53412741518119        0.15390951160436
C           -4.50705387331007        0.43117959806491        1.67039326564724
C           -5.03693794054873        0.27950486031331        0.39497967756127
C           -4.84660682392455       -0.88643861300329       -0.32357946186047
O           -5.32586301218462       -1.12400782198075       -1.58497849058383
C           -6.24365450164954       -0.21367222440428       -2.14461724307164
C           -4.06512075032026       -1.92513079178838        0.22819545669024
O           -3.90624782258194       -3.03293802305889       -0.55799365002140
C           -3.42994794679405       -4.20689452075376        0.07081516407790
C           -3.56542516366410       -1.77621933394611        1.51460285973767
C           -3.75952009828286       -0.59259727161853        2.21252250149068
C           -2.39790299665507        1.81626649225012       -1.12818644869582
C           -1.66097795903770        0.48699400036126       -1.03773814665396
C           -0.26922907820299        0.67139520255921       -0.59780972263887
N            0.50454034559645       -0.37951654530862       -0.15783866809141
C            1.89960072846403       -0.21891086710380        0.10314779006654
C            2.77563422387617       -0.73414270241304       -1.07367020755536
C            4.22519704107525       -0.55165883845911       -0.75485538106191
C            4.86167215460008        0.65383521945450       -1.00013524625675
C            6.19649640406527        0.83683552599115       -0.66609361770512
C            6.92222444867835       -0.18557619025511       -0.07814458301596
O            8.23604120884664       -0.11807056676439        0.29353633078610
C            8.93534906063142        1.07790575312096        0.06512287785236
C            6.28579448600750       -1.42189649785048        0.17394281493922
O            7.08040322830205       -2.37839368478714        0.74281181287957
C            6.52823266782212       -3.64082505468846        1.00680023212164
C            4.95352778991785       -1.58355252528256       -0.15766936176862
C           -0.06234819936062       -1.69655731620512       -0.03912154000721
C           -3.47932018815309        3.71345639198811        0.26004211695340
C           -3.55031391085215        3.94723055464143        1.78562162545317
C           -2.92017585759772        4.87709854496407       -0.51623255086146
H           -5.61271464033415        1.07943564445961       -0.04917457737501
H           -7.13461629668172       -0.09717333778988       -1.51492887241513
H           -6.55558887470815       -0.63389586169112       -3.10525785817351
H           -5.74531313613569        0.74867869370426       -2.30750922232947
H           -3.94173414184489       -4.52138709089166        0.97876922077839
H           -3.55861662842364       -5.00800587992038       -0.64880758948712
H           -2.38390506262012       -4.04936513174288        0.30531237264400
H           -2.99165126301819       -2.57916028202383        1.96191265150775
H           -3.30167560422164       -0.46430102863388        3.17108919281019
H           -3.37078671077959        1.64410915888279       -1.59325289189712
H           -1.84101768481548        2.48184155429786       -1.78364908279109
H           -2.16505728655428       -0.18886726895202       -0.33980982369207
H           -1.74812175820297        0.04163544860825       -2.04162600222546
H           -1.30128443165250        1.43874070472500        1.46953945585138
H            0.20593316313752        1.62483277936059       -0.66759850165534
H            2.16796559015477       -0.75525903539827        1.02406634358968
H            2.11443838159294        0.84058673973560        0.27083316200578
H            2.51117977642495       -0.17554188997031       -1.97684815173653
H            2.55321137262777       -1.78907485570601       -1.25102550474247
H            4.31555419594198        1.46369904005996       -1.46189965513082
H            6.66712399256918        1.78600711321419       -0.87080832387291
H            8.49188205142976        1.91868073111212        0.61041844030333
H            8.97978013564862        1.32484920527088       -1.00166539899640
H            9.94435313511190        0.89959124667502        0.43974916711221
H            7.33675073197725       -4.22273777217094        1.44651165638569
H            5.69922082704290       -3.58264087596003        1.71893151238526
H            6.18838136023259       -4.13440199894801        0.09004550551312
H            4.45748987561479       -2.52366262543020        0.03127744018490
H           -0.40309994819026       -2.06656444673731       -1.00997353971664
H           -0.92505372052019       -1.68319416554975        0.63479634093459
H            0.68250732967202       -2.37733397441080        0.36886471760922
H           -4.45784374876327        3.50806064164442       -0.16887021877987
H           -4.61776386550098        1.39759932433980        2.14722231928309
H           -4.65601202943181        4.06578900128736        2.04774170729480
H           -3.14960148016963        4.88471208841814        2.09726825716254
H           -1.90254659150676        5.05131760574151       -0.19394944249032
H           -2.92962744530428        4.62920504402288       -1.57107229582659
H           -3.53013870870901        5.74689853833584       -0.34426130159775
H           -2.32534422040180        2.80525113026968        3.28847117691392
