72
 energy: 35.757254996178 xtb: 6.6.1 (8d0f1dd)
N           -1.89894990064511        3.25393110730796        2.36368027126964
C           -1.81956153028220        2.27961531613541        1.57304100974438
C           -2.89853529958963        2.11888149354611        0.50827413748799
C           -3.70859553605606        0.79333318693622        0.87871338096195
C           -4.59333557926493        0.39841998686217       -0.13674033817158
C           -4.88266422066149       -0.91502584568109       -0.43554902831423
O           -5.65354822516528       -1.33316999681843       -1.47601898899315
C           -6.32499738344703       -0.38650369643110       -2.25584441935060
C           -4.29186235085309       -1.93205966676588        0.33687033308397
O           -4.54023484830106       -3.21022491003919       -0.05183814161124
C           -4.11303152690556       -4.22318025514805        0.82241708927889
C           -3.59208239550196       -1.57162311065721        1.47090546919638
C           -3.28280524826711       -0.23174565916474        1.71662672014935
C           -2.22241887922993        2.03551463465163       -0.89852150909372
C           -1.37532642566763        0.88333230618606       -1.47870996356697
C            0.06753007880890        0.82529644841794       -1.11978419606461
N            0.60837242211541       -0.24682517844376       -0.39553912833287
C            2.02784473887185       -0.20877476540229       -0.16478524931134
C            2.96604249063118       -0.66595006713321       -1.30519486027092
C            4.40413237758439       -0.52285019637209       -0.89984362300657
C            5.07552052009794        0.66934699434989       -1.08042230252699
C            6.37981749313592        0.81750590173363       -0.63054978802262
C            7.04171931776605       -0.21412807746650        0.01914938232872
O            8.33309471614646       -0.16111677688709        0.46641060551845
C            9.05633973048003        1.02053345450477        0.23151767465879
C            6.35831206225023       -1.43016773731754        0.23052690750238
O            7.04472336148840       -2.40983248182446        0.88327284918156
C            6.40021575312448       -3.63650451052588        1.09434348880838
C            5.06164646321822       -1.55610023667331       -0.23596119680862
C           -0.04808767909119       -1.52682780078424       -0.40982119772728
C           -3.84232135060182        3.35589480831459        0.43935991769191
C           -4.55613155297148        3.51062545230716        1.76857850257156
C           -3.23759417560586        4.66276643821347        0.05247825202600
H           -5.02634440813839        1.16205227374496       -0.75028263140712
H           -7.00780972727821        0.22006816642089       -1.64284195014622
H           -6.93286912044064       -0.93950011525684       -2.96360253959012
H           -5.59276159056514        0.24331559046878       -2.76763497520241
H           -4.43163314869048       -4.13839018170943        1.85555255998583
H           -4.52114621647242       -5.13101066071602        0.41497225417193
H           -3.03773453970152       -4.27623747853078        0.85301279214343
H           -3.17315136819111       -2.36426143883671        2.08476907854036
H           -2.65851503322358       -0.03019939757370        2.55900564029952
H           -3.04290126511315        2.16114470438481       -1.60633796319807
H           -1.51485050494429        2.82265814405652       -1.01104738722300
H           -1.85962443727347       -0.00588064882536       -1.09958643942629
H           -1.52837202143060        0.95644656870665       -2.57964349285307
H           -0.99666795034380        1.49200143482496        1.53786167803626
H            0.76911227890622        1.55257527099794       -1.54938142421123
H            2.23530725865030       -0.84356426946012        0.68887432406179
H            2.28459836310320        0.82120413139319        0.09636382106419
H            2.75472779039765       -0.04861928659252       -2.17488410900926
H            2.73017366608327       -1.70034278517708       -1.54506190465599
H            4.57779679701546        1.49195460988379       -1.57087238437295
H            6.87965527973495        1.75915970348956       -0.79910693954581
H            8.60202923254616        1.87942221190421        0.73869103447434
H            9.12581542719331        1.24615195989488       -0.84013622903135
H           10.04830732183670        0.83350403058050        0.65904595683191
H            7.14595179016984       -4.25987725663583        1.58687346827503
H            5.52305035801708       -3.51669270940448        1.73626713579922
H            6.08271002997569       -4.11340140415844        0.16120029079478
H            4.51489806097885       -2.47189402437081       -0.09054338368080
H           -0.22335942922280       -1.90972577311165       -1.42134654530554
H           -0.99290027358503       -1.48471369605993        0.13315241815733
H            0.58347376932291       -2.21437565287974        0.11401706925755
H           -4.60886125507541        3.20385617058884       -0.31307274633040
H           -4.16998654888812        2.68141713453367        2.28467085027128
H           -5.55238889285388        3.10565083624871        1.71427814756414
H           -4.58516113935199        4.52291600355077        2.15528969271307
H           -2.33813166553306        4.86608850827976        0.61497191687351
H           -3.02776476510388        4.65559267392385       -0.98821579822003
H           -4.00634503033802        5.40983947030940        0.25092735786510
H           -1.27306501226952        3.32150605355529        3.16059637192611
