72
 energy: -5.162053417250 xtb: 6.6.1 (8d0f1dd)
N           -1.63662716969749        2.89535648803435        2.27344327170557
C           -1.62829279251761        2.16538694923143        1.25502154194569
C           -2.81273563191933        2.07646595092181        0.33529770930279
C           -3.43795353477444        0.69551549968863        0.45195874163518
C           -4.39877820793815        0.30040517319976       -0.47999888329673
C           -4.88275709636347       -0.99502085706811       -0.50874615431526
O           -5.81520016282656       -1.45175108556362       -1.39433378372749
C           -6.37781001411250       -0.54517385299339       -2.29590496812081
C           -4.39929428074529       -1.94902683770327        0.41231087443500
O           -4.89740879083318       -3.21766589460580        0.29145374626985
C           -4.52328879571809       -4.15367559592677        1.27098466614400
C           -3.47785288524054       -1.54108829905940        1.36337738442017
C           -3.00215195382032       -0.23463306339171        1.37574250046261
C           -2.20151660740822        2.26030653666300       -1.08242534403967
C           -1.30201770561380        1.12041289282599       -1.61468480356876
C            0.04075445545336        1.08460072788132       -0.97610942173506
N            0.62851110047252       -0.09690425211103       -0.53220728707982
C            2.01815041824268       -0.08634508176350       -0.17420372046661
C            2.96244170136984       -0.57762712598037       -1.30716788682985
C            4.38944281876095       -0.45699751842390       -0.86319601489756
C            5.11242050752948        0.70409326277490       -1.06169625039245
C            6.41700475358510        0.82848126770211       -0.60354900910523
C            7.03208622953384       -0.21958655848589        0.05580869262492
O            8.31319838421224       -0.20234480170227        0.52719917718044
C            9.07966666513949        0.95752003425443        0.30708549732884
C            6.30351334978134       -1.41072605304527        0.27385779536856
O            6.98468867028874       -2.39422724298725        0.93126768057797
C            6.33467578865060       -3.61932490623412        1.14202585045417
C            4.99968820287818       -1.50795039555937       -0.17952863955316
C           -0.05737079737949       -1.36473062567330       -0.57973699364580
C           -3.92243925018104        3.15578980125767        0.56148974193720
C           -4.60889279245369        2.96183578891604        1.91345117294984
C           -3.39008434017498        4.57994448547706        0.42763062057476
H           -4.76598178386410        1.02744423142365       -1.18682136407982
H           -6.87382733832296        0.28741112249483       -1.76780557461336
H           -7.11967001066022       -1.11458011843273       -2.86267166210798
H           -5.61340551509513       -0.14811290280444       -2.97865630680152
H           -4.76767094120910       -3.81993299874581        2.28088568411917
H           -5.06685099650388       -5.07405676692672        1.05555640029405
H           -3.45412748818620       -4.36120274818160        1.23900616104158
H           -3.12388995271901       -2.23793596999004        2.10817507183470
H           -2.28864049078617        0.05524062360790        2.12864842953051
H           -3.03081046849639        2.40526702869911       -1.77170240114929
H           -1.59858358116545        3.16965823409505       -1.07571000333431
H           -1.79667781243227        0.15304116176071       -1.51452657356434
H           -1.19786950481470        1.34348061195326       -2.69558956043580
H           -0.75022254175630        1.60492834565142        0.87935393871914
H            0.71413742360190        1.92531982814542       -1.11890907984980
H            2.17371624714868       -0.71883298960581        0.70955720740622
H            2.30544412090745        0.93368066789725        0.09949538141911
H            2.78978967921167        0.02517389883057       -2.20016802544921
H            2.72836433668085       -1.61692286894893       -1.55446220457058
H            4.65840400116572        1.52590354064615       -1.58757305327082
H            6.93789325020686        1.76128097333213       -0.74847415262869
H            8.64196985545434        1.83185076922264        0.80272554899260
H            9.18869555285497        1.17261527437044       -0.76311811196199
H           10.05605714343459        0.74551007842035        0.74194152217401
H            7.04172309609364       -4.27579454755850        1.64994441398914
H            5.45005454706251       -3.48690807596482        1.77475371607880
H            6.03796564773440       -4.08156837062838        0.19463070175201
H            4.43182230404843       -2.41076381606163       -0.02441664298825
H           -0.22075278528446       -1.72106023133866       -1.60731682813202
H           -1.02960281262632       -1.32158567135973       -0.06965381700482
H            0.55157136096062       -2.10839272443575       -0.07316543445432
H           -4.67700964457799        3.00177743069131       -0.22011619826760
H           -3.89919774565202        2.93514283049177        2.70801527308143
H           -5.14637377697297        2.01762747972939        1.94611908668712
H           -5.28311028344709        3.78605354580086        2.14177112225551
H           -2.55787580764999        4.71551328906260        1.10662372319611
H           -3.05156523055419        4.78825668255084       -0.57937576044328
H           -4.16691903185321        5.29787280457326        0.68553034229247
H           -0.80026275498198        2.90459152210296        2.82691561219886
