72
 energy: -8.013410262950 xtb: 6.6.1 (8d0f1dd)
N           -2.34575803734721        3.29143606295212        2.27494818810885
C           -2.01243419967189        2.34013729321175        1.31876211361012
C           -2.54357219999624        2.59381874182048        0.12422982183591
C           -4.57465670891682        0.32243862694464        1.73868283808573
C           -5.09542565377203        0.21754161705089        0.45523769205147
C           -4.84114688671405       -0.90420595812184       -0.31468312788996
O           -5.29818235256000       -1.11174327212122       -1.58167508301962
C           -6.21128598784815       -0.19281855371488       -2.12380027034036
C           -4.05849700340970       -1.95159206235634        0.22209929444644
O           -3.86627104770280       -3.02068405294645       -0.60410538872036
C           -3.32347745483525       -4.19788179738778       -0.06304740600419
C           -3.55587719706774       -1.83565816755660        1.50685305662865
C           -3.80867723487380       -0.69520331841255        2.26096807744397
C           -2.35063724886200        1.88251352934825       -1.17400391670804
C           -1.66286256402548        0.52717220981255       -1.02379511242894
C           -0.23941120552686        0.67557173016796       -0.64704685606419
N            0.48874723916158       -0.35999069614961       -0.09720174599084
C            1.89351847099160       -0.21477806664154        0.11455365244484
C            2.76529608728169       -0.73381692996902       -1.05818157843237
C            4.21548363655554       -0.54964424328986       -0.74388603664752
C            4.84581312971555        0.65903570414338       -0.98583544581005
C            6.18029047221110        0.84479391491531       -0.65878332011756
C            6.90986364879121       -0.17753738203777       -0.07673854185679
O            8.22595678620326       -0.11009630706755        0.28212366356639
C            8.92362444698714        1.08439696519662        0.04716524913411
C            6.27708205027624       -1.41443383841617        0.18080724432610
O            7.07578643869470       -2.36487538379909        0.74755586622652
C            6.53801041833006       -3.63613899473084        0.99920973993119
C            4.94574966856211       -1.58046718475384       -0.14762587208829
C           -0.08644293863050       -1.67358612695248       -0.02275587859714
C           -3.42554086437783        3.82450555374395        0.22194396284331
C           -3.40315231320473        4.13313885977001        1.73559023993088
C           -2.88843316160215        4.99036526621184       -0.60964692082599
H           -5.70159821571686        1.02059594951144        0.06822333499693
H           -7.10049687272786       -0.08891311364017       -1.49266164120367
H           -6.50288487216767       -0.60470749038683       -3.08908713828824
H           -5.75900400361786        0.79328443977703       -2.27626400921690
H           -3.89368856948125       -4.53914931613097        0.80757171573570
H           -3.39638958326559       -4.94335389937477       -0.85394390352286
H           -2.27149553736529       -4.07567534259332        0.21799380319202
H           -2.97124403382401       -2.63431365822990        1.93705143686738
H           -3.40664626614026       -0.62202384103734        3.26020004787488
H           -3.33035169290783        1.73433557586562       -1.63975764850174
H           -1.76373523760074        2.50848664635936       -1.85568861873216
H           -2.21129556131852       -0.06023974243237       -0.28008860197340
H           -1.75442447747412       -0.01862797062835       -1.97720810733421
H           -1.33382763858869        1.55298677305077        1.59186694940662
H            0.25304242921283        1.62394724426609       -0.71521028249928
H            2.16776925109265       -0.75852863771188        1.02506918123141
H            2.11692889019421        0.84310298465182        0.27042493523275
H            2.49483461012860       -0.17676506411426       -1.95641781059168
H            2.54257923535864       -1.78891988739267       -1.22479648033688
H            4.29726672616912        1.46782474119206       -1.44512854343909
H            6.64390630584804        1.79534029183953       -0.87043825913106
H            8.48783419687543        1.92538083143349        0.59788930206543
H            8.96022000761164        1.33081182876088       -1.01980248270807
H            9.93525048936603        0.90481038639825        0.40862814385545
H            7.35618734856846       -4.21917875802407        1.42004105422170
H            5.71649765659166       -3.59476512685326        1.72313500393192
H            6.18748862558236       -4.11869878509975        0.08011347358428
H            4.45301440738287       -2.52184423108972        0.04274002929820
H           -0.45577175930652       -2.02486112752003       -0.99253598046174
H           -0.92968428508301       -1.66674384016657        0.67493768664009
H            0.66323233586447       -2.37290655489051        0.34201691774021
H           -4.44301358103712        3.60157719286708       -0.12038847848536
H           -4.78605908735442        1.20375269553678        2.32296038157327
H           -4.37462424225900        3.91926128184343        2.20103848696674
H           -3.16113354220328        5.18261774448471        1.92917911568359
H           -1.86446806471729        5.21516871609377       -0.32154582248885
H           -2.90658477044278        4.74203016704573       -1.66818483345385
H           -3.49915624915948        5.87803454969274       -0.45607089499898
H           -2.42005541205883        3.00444344474777        3.23870666634042
