72
 energy: 52.465933206755 xtb: 6.6.1 (8d0f1dd)
N           -2.05449375099090        3.29570929245043        2.40218074840408
C           -1.92570718349314        2.31696157155058        1.62444638615724
C           -2.90915815464922        2.15615361404516        0.48827968423134
C           -3.80805855428253        0.80150462850390        1.00525763602952
C           -4.67728902120112        0.42068041957264       -0.03118986504015
C           -4.88129245823891       -0.88812246312401       -0.40853565794588
O           -5.58783695597158       -1.29137404299028       -1.50115999737728
C           -6.30218379544465       -0.34018392740731       -2.23883890965823
C           -4.24472166127402       -1.92140570347471        0.30977299615955
O           -4.41541727952985       -3.18605478681335       -0.16111818132938
C           -3.97742708170856       -4.23369038872827        0.66877876499602
C           -3.58838101065729       -1.59233612598686        1.47914520903882
C           -3.36789887636667       -0.24614875122030        1.81821255562542
C           -2.27463118239757        1.96223259011640       -0.89212921080690
C           -1.44456993072523        0.77482483659912       -1.38072978588464
C           -0.01147534500811        0.73079024142857       -1.02743829590023
N            0.58078546927591       -0.30767008756053       -0.31553200913499
C            2.00163302048345       -0.23381139374542       -0.11170257542218
C            2.92068313395437       -0.69742960295060       -1.26750760997486
C            4.36313870720849       -0.53931994562637       -0.88192722995897
C            5.02786358068337        0.65815451653303       -1.07419142272684
C            6.34119820945984        0.81736683099186       -0.64927492392533
C            7.01836621465365       -0.21006814115863       -0.00841937855088
O            8.31296703345682       -0.15147027245703        0.42926492640011
C            9.03129829317202        1.03376134024772        0.19880998594181
C            6.34356273845683       -1.43025718411029        0.21462446833253
O            7.05477426213267       -2.40532375453848        0.84979478076922
C            6.42878678645003       -3.63881193364245        1.07625113302958
C            5.04180651587589       -1.57073599508698       -0.23516866977315
C           -0.04961771780363       -1.59057334791885       -0.32634329922743
C           -3.80392050242346        3.41595855274973        0.40803109081933
C           -4.44992550971803        3.59010909756754        1.77865352827466
C           -3.17409986608863        4.68374866006411       -0.06847265725760
H           -5.14715737782058        1.19686058820900       -0.60736899325673
H           -7.04522606970730        0.17198563830916       -1.60495540735857
H           -6.85391855450681       -0.88197624401168       -3.00125271611803
H           -5.59832720227704        0.36931120587082       -2.68605115731290
H           -4.32825166663991       -4.25210339651670        1.69580080071163
H           -4.33137798203711       -5.12766859576728        0.18939079470229
H           -2.90389662186336       -4.23442242194204        0.73055840565231
H           -3.13898556255197       -2.40111329925884        2.05258208913332
H           -2.79111688035121       -0.06243604813131        2.70259314588869
H           -3.10512937316393        2.03173238762444       -1.60178187182258
H           -1.60325238414629        2.76505023914718       -1.12926776561288
H           -1.92718839280538       -0.08273091159883       -0.94249510157868
H           -1.62104093754194        0.77733723297595       -2.47718162637676
H           -1.12285683583974        1.53265805141592        1.61204469731187
H            0.62658528363461        1.49267967368615       -1.43916640659168
H            2.23852964582610       -0.84199954668418        0.75419265134329
H            2.23793129866631        0.80759626201699        0.11982666413190
H            2.69612119776036       -0.09341237217481       -2.14551846549505
H            2.69279509919148       -1.73855681674615       -1.49290404872868
H            4.51934546229935        1.47837443608651       -1.55918903449810
H            6.83617936311573        1.76153996784818       -0.82492243287534
H            8.57722262033710        1.88780413390671        0.71438798259467
H            9.09877522758839        1.26677321568339       -0.87136086878842
H           10.02511810460952        0.84553892143779        0.61913408845209
H            7.18759603240997       -4.25003149622780        1.56422995006867
H            5.55905557114549       -3.52667665237449        1.72730406395470
H            6.10918311933073       -4.12560834626677        0.14888289819567
H            4.51553890224863       -2.50129216290797       -0.08635449868012
H           -0.24059573987553       -1.98663793704186       -1.32989246312246
H           -0.98354865137300       -1.54501696072468        0.23292092940943
H            0.60825268235563       -2.25297825935646        0.19275647888309
H           -4.61007373140499        3.28262978413378       -0.30009470164414
H           -4.23160628353719        2.56309056725965        2.20012921557285
H           -5.53391804656045        3.46461760576468        1.70168267643795
H           -4.25007187771847        4.59719309983133        2.17398199697097
H           -2.25400086092030        4.90198808159190        0.44987356334935
H           -3.00701152158807        4.60806278155812       -1.11628325995103
H           -3.91322702058830        5.46426868880889        0.11090046984172
H           -1.52562543114747        3.34958586639073        3.26362689573410
