72
 energy: 28.841696202796 xtb: 6.6.1 (8d0f1dd)
N           -1.84446990378381        3.21137855864502        2.34883111624264
C           -1.77567428473451        2.25685746519901        1.53662212607861
C           -2.88498381564596        2.10108931420840        0.51109555473753
C           -3.65718170917240        0.77640682903798        0.81541788265942
C           -4.55047619093306        0.37931182319014       -0.19167704173014
C           -4.88295418136967       -0.93242731785799       -0.45136418963527
O           -5.68745373803177       -1.35449468516505       -1.46364854652412
C           -6.33514930880963       -0.41079242631713       -2.26544706860881
C           -4.31415936403566       -1.94010981930197        0.34757285778317
O           -4.60354123142606       -3.22211805105220        0.00291425902878
C           -4.18089926325554       -4.21722271844652        0.89904296460052
C           -3.58091488467372       -1.56956280565182        1.45566141687117
C           -3.23759199249417       -0.23492444685457        1.66334131742361
C           -2.20282684935369        2.07739392884214       -0.91274483783255
C           -1.34525739953486        0.93810673621098       -1.52021788807661
C            0.09784047477673        0.87187650713251       -1.14716785190440
N            0.62077838266710       -0.21761449306255       -0.42726032784946
C            2.03939970823054       -0.19652719092987       -0.18199264574385
C            2.98313145471439       -0.65114773028257       -1.32083868996965
C            4.41852124626869       -0.51510787480572       -0.90497832130905
C            5.09696886233569        0.67294999029082       -1.08279244551838
C            6.39729472169984        0.81674733380041       -0.62241080144490
C            7.05106982767752       -0.21787560386598        0.03002574620535
O            8.34052541207839       -0.16697960206107        0.48420151881628
C            9.06710122323099        1.01320336403471        0.24730797736670
C            6.35917715486668       -1.43078207457591        0.23683288816645
O            7.03794975079480       -2.41089568539089        0.89832528138423
C            6.38683793863261       -3.63508061045189        1.10335545625868
C            5.06113329711606       -1.55089736810783       -0.22935993576497
C           -0.04763532892302       -1.49661068090473       -0.44748905609599
C           -3.85724071809794        3.31531803523434        0.46766566867792
C           -4.60088188381077        3.42381707846269        1.78296835228531
C           -3.27080722117363        4.64689200454710        0.12064051921873
H           -4.96551573709846        1.13668107058071       -0.82298618399181
H           -6.98427372793509        0.24380101849859       -1.66780295661569
H           -6.97043763571517       -0.96703439592993       -2.94674675772502
H           -5.59047581290590        0.17724472490800       -2.80769000800060
H           -4.48388578345019       -4.08134612230341        1.93170488578117
H           -4.61373280902039       -5.13092194384133        0.52861714138424
H           -3.10538065363974       -4.29511212394188        0.91578110737241
H           -3.19435729170398       -2.35217806837638        2.10284191961378
H           -2.59355464083909       -0.01875341670963        2.48553288024034
H           -3.02204317158374        2.22601905576063       -1.61652252523668
H           -1.51038094906340        2.87952785075344       -0.99143096368577
H           -1.83189100849966        0.03318128538471       -1.17503844833754
H           -1.48070413708293        1.04122743098251       -2.62205801937131
H           -0.94701760642722        1.49005759464299        1.48845568193597
H            0.82750684747217        1.59239912082414       -1.55438540484100
H            2.24334662813699       -0.83850891638313        0.67266157407674
H            2.30701734502193        0.82849661264102        0.08996036002884
H            2.77880178470581       -0.02834164666474       -2.18771502859198
H            2.74720996203309       -1.68341224306061       -1.57003739087205
H            4.60583643213716        1.49730499576070       -1.57685242063526
H            6.89868047718613        1.75793713840633       -0.78582015499828
H            8.61295879438064        1.87453534858886        0.75057936940030
H            9.13863333417228        1.23513171056911       -0.82497858884433
H           10.05944505559778        0.82928684493226        0.67677150541799
H            7.12585681875101       -4.26447213796569        1.59811064977537
H            5.50652057276124       -3.51191798886982        1.74143148985836
H            6.07140626264950       -4.10714268862632        0.16710222521641
H            4.50302889861823       -2.46100127754791       -0.08513156554035
H           -0.21616400731838       -1.87394430775689       -1.46294167520015
H           -0.99826241387215       -1.45463549363161        0.08668426955743
H            0.56862261116187       -2.19938706995204        0.07821946937291
H           -4.60663477839957        3.16275948086708       -0.30722815648086
H           -4.19901514832644        2.66426510439477        2.37285200031012
H           -5.54072698202338        2.91153030708245        1.72465808831485
H           -4.75824080952897        4.42883421450306        2.15070409458112
H           -2.37891209866239        4.84558944580031        0.69859765501630
H           -3.04150660233039        4.67816515402593       -0.91731015879691
H           -4.04892741408013        5.38262620701995        0.32644401582018
H           -1.14470079343837        3.28767676495440        3.08493353543737
