72
 energy: 88.064292849837 xtb: 6.6.1 (8d0f1dd)
N           -2.10329058939332        3.15521742563794        2.39573968694696
C           -1.92362940502502        2.25715770763394        1.45059198392341
C           -2.66836531816797        2.39330401204012        0.30993813883279
C           -4.25088603969329        0.65561271689079        1.46151996761568
C           -4.87401715488799        0.39105616254386        0.22174715939934
C           -4.84473833082096       -0.86825515907433       -0.35866689293109
O           -5.44539056802578       -1.20383950848060       -1.54915698933987
C           -6.25222916201702       -0.25957447009090       -2.20542379817101
C           -4.14217798875530       -1.92250743475007        0.25579911282584
O           -4.17305147198638       -3.13485364211793       -0.37585744988242
C           -3.70821574760981       -4.24398254497746        0.36450277818493
C           -3.55042110239939       -1.69585863843812        1.48638671279565
C           -3.58448559142193       -0.41167256067317        2.04581187412494
C           -2.35799319733412        1.86566368925664       -1.01279254146858
C           -1.56468181185277        0.58788502985409       -1.18708232235193
C           -0.14651452406105        0.63100990387922       -0.80935318457400
N            0.52206818221037       -0.36403791167233       -0.16366937565114
C            1.95245737814016       -0.24839383878879        0.00952479265609
C            2.82996406887864       -0.73289743483665       -1.17506614113851
C            4.28356362778588       -0.55606028971813       -0.82930572526942
C            4.93669985798982        0.64459435089548       -1.05541502425194
C            6.26574669051627        0.81982480284960       -0.67878819566256
C            6.97304397447058       -0.20306119358267       -0.06625233001043
O            8.26959348337412       -0.13378621782366        0.35545433839279
C            8.98050080289659        1.05926070946120        0.13138539992431
C            6.31849802677867       -1.43604244055309        0.16417723597583
O            7.07218777924516       -2.39385766930067        0.78082561217679
C            6.48553342252240       -3.64164412888642        1.03977875750281
C            4.99392741140504       -1.59021951959210       -0.21568068078042
C           -0.05236087019603       -1.67895537324638       -0.15772568652871
C           -3.64275055357589        3.55594966397707        0.33354692282255
C           -4.03068662844649        3.85701836474343        1.73102417603756
C           -3.02389191836937        4.75931927989023       -0.31415094119396
H           -5.40179233836492        1.17217100046392       -0.31182226943120
H           -7.09655577043102        0.04992232985602       -1.56361052023636
H           -6.68946794253005       -0.76095547817666       -3.07352065418111
H           -5.61929952606353        0.58813384080074       -2.51130927056730
H           -4.12442957274393       -4.44061870066531        1.35336687610571
H           -3.94338604256995       -5.10220689070064       -0.24303664906431
H           -2.64454420818673       -4.14115070770547        0.50257315549131
H           -3.07370717383023       -2.52640711006669        1.99997090560321
H           -3.06615190252053       -0.23504236384724        2.96499166420572
H           -3.26159040241892        1.80048205493996       -1.62008330590676
H           -1.74895135370013        2.62309495579986       -1.48409801231255
H           -2.05755643151407       -0.18871003824832       -0.62268132728142
H           -1.75192064328101        0.39379885410144       -2.25171121681041
H           -1.25508279036830        1.43935409417100        1.69500083520291
H            0.38549149237626        1.52124664782655       -1.06779600679693
H            2.22830577543478       -0.81144734041290        0.90626544427071
H            2.16161945143601        0.80796481795178        0.18855707188310
H            2.58775091896320       -0.15625100591513       -2.07195163521433
H            2.61681438453450       -1.78453366787082       -1.37851921914357
H            4.40925850276229        1.46225031985287       -1.52740937253017
H            6.74680130803860        1.77029649649912       -0.86132177131215
H            8.52788130924151        1.90280316239939        0.66430231766927
H            9.04132609438643        1.30191249738938       -0.93612574977764
H            9.98140470032862        0.87619642376640        0.53015564479927
H            7.26876904044687       -4.23169868178193        1.51475974975379
H            5.63360633980990       -3.54812918390448        1.71493208579251
H            6.16256997965960       -4.14370405961283        0.12191588660901
H            4.49106410987096       -2.53067888500076       -0.03927113925714
H           -0.28778723939119       -2.09845878829637       -1.14270365213368
H           -0.96197287791951       -1.64130962958738        0.43953242650528
H            0.64836603081932       -2.32352330661614        0.33430855983810
H           -4.53236737913614        3.40462422275428       -0.27419022789188
H           -4.38397204323133        1.70625129778543        1.97898453771796
H           -5.14989878936214        3.96244006820216        1.85125291390021
H           -3.58937520675128        4.67024476106870        2.21900112829969
H           -2.06338448462099        4.96698034131916        0.12376362193064
H           -2.95438121752100        4.56387262469465       -1.36386235048248
H           -3.71135636942556        5.58372459422791       -0.14568101532305
H           -1.82793907350914        2.86788048338322        3.32921560960206
