72
 energy: -5.540525574198 xtb: 6.6.1 (8d0f1dd)
N           -2.41168831565660        3.20364990108296        2.30011905908435
C           -2.03427340027318        2.29026764671783        1.32347392915223
C           -2.52409101315079        2.58982347577725        0.12456956564426
C           -4.52994068990683        0.37887585084172        1.69571089622582
C           -5.06805004501657        0.24917786947759        0.42138859448452
C           -4.84595104249585       -0.90091832015091       -0.32025132482670
O           -5.31796107373397       -1.12275278312892       -1.57738411964202
C           -6.22440117607778       -0.19654122316679       -2.12085346535895
C           -4.06817860642177       -1.94196772662859        0.23355777196308
O           -3.86201829212386       -3.00878801323621       -0.59999017367021
C           -3.31752633860369       -4.18181452424642       -0.05847610890925
C           -3.56727294146881       -1.81273655951982        1.51938877327454
C           -3.78569381889143       -0.64204771385250        2.24518954134124
C           -2.35407641843728        1.87722369403440       -1.17394930370580
C           -1.66953019022168        0.52007320638421       -1.00905149988930
C           -0.25889226475077        0.68858635843354       -0.59138700277144
N            0.49269810285751       -0.36636853751418       -0.11561071701721
C            1.89087153961908       -0.20955207547841        0.11243680070349
C            2.76655097518808       -0.73188526792219       -1.04945496946341
C            4.21598892849195       -0.54706663686412       -0.73510046642613
C            4.84299943398675        0.66178912199561       -0.97871690965468
C            6.17759159820050        0.84747106231843       -0.65488205265523
C            6.90855978171099       -0.17314350357129       -0.07265109031262
O            8.22323184585324       -0.10385655508633        0.28474738109066
C            8.91812230823645        1.09125146603745        0.04294785924096
C            6.27757104252496       -1.41057705415035        0.18554603751861
O            7.07602410592761       -2.36004652996160        0.75194392392159
C            6.53847578035981       -3.63219148683331        1.00275809235779
C            4.94607251066071       -1.57732803779350       -0.13946084833506
C           -0.08983635383615       -1.67608192144913       -0.02371788501188
C           -3.42626584259342        3.80306678133508        0.25332255194587
C           -3.44095273267103        4.07774285420873        1.77518149353155
C           -2.90854804410717        4.98028476892024       -0.55727473250544
H           -5.67320466786380        1.05836294046080        0.02445203221733
H           -7.11503872870333       -0.09931737112717       -1.49157545723371
H           -6.50294644509647       -0.58893255761623       -3.09842919634907
H           -5.78065941156522        0.79609245616179       -2.24777645468308
H           -3.90312790873762       -4.52736367459086        0.79434270668161
H           -3.38292870319616       -4.93464259130480       -0.84136683650574
H           -2.26712327893326       -4.04997770283374        0.22575840820292
H           -2.99387954683304       -2.61598658872072        1.95935103484378
H           -3.37249073353139       -0.54618160048030        3.24083921564639
H           -3.34143587933198        1.73656377671958       -1.63054915389860
H           -1.77486804247758        2.48941517867843       -1.87590195307682
H           -2.23283078920162       -0.08819245102440       -0.28982979285898
H           -1.72002184585112       -0.02676207209648       -1.96262392574829
H           -1.32194507443899        1.52940569140879        1.57867048047893
H            0.24671829083086        1.62567466478715       -0.71967975792689
H            2.15612766612076       -0.75108121827869        1.02596758330418
H            2.10584691561219        0.84921204407121        0.25996678746608
H            2.49611371161243       -0.17886347505155       -1.94908062210941
H            2.54079067584769       -1.78657988953324       -1.20878662993710
H            4.29176316474285        1.46928614192749       -1.43652607229041
H            6.63880087304363        1.79845897549437       -0.86788987504394
H            8.48434661389485        1.93260315544446        0.59455235994700
H            8.94916255084471        1.33597780339987       -1.02489701005901
H            9.93096944974774        0.91332121785882        0.39843775871326
H            7.35934331108126       -4.21478986151070        1.41794959468711
H            5.71914266400750       -3.59124999853942        1.72952074308192
H            6.18578800323462       -4.11266785894704        0.08343123783277
H            4.45339095610026       -2.51785099869425        0.05405179784220
H           -0.48185624679770       -2.03491937081070       -0.98112182437884
H           -0.91600436888501       -1.64550525021439        0.69151564227810
H            0.66895105604926       -2.36790399386965        0.33151138009748
H           -4.43254714173418        3.57423002227111       -0.10515609311922
H           -4.80400999398688        1.27886020264761        2.24336834484890
H           -4.46951643647288        3.96411902453269        2.17505082552619
H           -3.12545203639592        5.09541727611027        2.00239358448783
H           -1.88985111562866        5.20075320781581       -0.25149329905354
H           -2.92058368347661        4.73560687094064       -1.61603400230188
H           -3.53099409094597        5.85980039145838       -0.39905697360745
H           -2.46880643729487        2.88073258032506        3.25306287657022
