72
 energy: -1.400729072612 xtb: 6.6.1 (8d0f1dd)
N           -1.71819291013856        2.95824863553354        2.28959519371884
C           -1.66467517818890        2.17386960420044        1.31666252629818
C           -2.82808389993289        2.07079564037820        0.38427184842499
C           -3.48169441205300        0.70483779880009        0.52468460419131
C           -4.42449482476451        0.30891801051850       -0.42439898642737
C           -4.89417527519366       -0.98709124567206       -0.49459336553414
O           -5.80115810770132       -1.43366717594231       -1.40873189267450
C           -6.36545535850149       -0.51705179170525       -2.29782855461360
C           -4.38898325599412       -1.95287112287782        0.40036395696748
O           -4.84266271493702       -3.23339458321490        0.23468426281825
C           -4.45129597018612       -4.17654111332471        1.20264125957987
C           -3.50235389397979       -1.54608195193580        1.38409041842240
C           -3.05227512159542       -0.23248065011162        1.43848066336861
C           -2.19288215682868        2.24065138889071       -1.02644667622452
C           -1.31044937722621        1.09479495448702       -1.59275052680336
C            0.07124121241971        1.04425410730225       -1.04452011848416
N            0.62828770456356       -0.12643286725158       -0.51885965640695
C            2.02791120077792       -0.11563609642619       -0.18751111026832
C            2.97738484247066       -0.59722742716257       -1.32725885598523
C            4.40542010750022       -0.47105908750342       -0.87660510357439
C            5.13001646818217        0.68959390430478       -1.07218390263847
C            6.43139404509922        0.82043895683831       -0.60601344770542
C            7.05124754280520       -0.22507584677403        0.05244046280146
O            8.33302900323151       -0.19505991849933        0.52572967727446
C            9.08374695761177        0.97509155349412        0.29895085834770
C            6.32170987891285       -1.41649353871038        0.26747794522306
O            6.99946914986072       -2.39971034141984        0.92933662114466
C            6.34381791434079       -3.62291862414444        1.13436170149422
C            5.01796756632814       -1.51741104807998       -0.18883844136356
C           -0.05816787126378       -1.39682212766020       -0.55896300266975
C           -3.91634048238340        3.17429174338178        0.55533666300952
C           -4.65160586475005        3.04587322994601        1.88378708297091
C           -3.37908443604794        4.58909028238856        0.36783107284343
H           -4.79016039031306        1.04059271396079       -1.11921222395313
H           -6.88888234651149        0.29441819213398       -1.76573417887969
H           -7.08896674914901       -1.08299051053336       -2.89355904670845
H           -5.59243026104157       -0.08676987379570       -2.95093342555700
H           -4.70808144135411       -3.87500491011241        2.21778516785308
H           -4.96101899620241       -5.11129145511160        0.97096346616211
H           -3.37781875083378       -4.34513331621900        1.17870312397986
H           -3.14470721450225       -2.26233107648799        2.10956079055961
H           -2.35859969122910        0.05823396248964        2.20980799214454
H           -3.02310376716439        2.41116423697063       -1.71119481092751
H           -1.56539313070662        3.13392317177801       -0.99948226196564
H           -1.79471241374598        0.13126422866878       -1.44122847769590
H           -1.29868822043478        1.31192068776205       -2.67791408341326
H           -0.78306759007179        1.57560306828110        1.02123502249512
H            0.76368244858265        1.86671118677056       -1.20961650892750
H            2.20185937535120       -0.75176080905543        0.69063826479118
H            2.31287927140961        0.90404444410579        0.09395972710660
H            2.80733742737660        0.00588556966191       -2.22082140484922
H            2.75252996858569       -1.63744412365081       -1.58174102371117
H            4.67712041971088        1.50989644206255       -1.60163047795024
H            6.94183250437122        1.76113906605692       -0.73733077160030
H            8.63796530729777        1.84575997892933        0.79491509063064
H            9.18278545305980        1.18995089723081       -0.77261465112318
H           10.06494242670462        0.77618725341277        0.73116667051869
H            7.05345238370847       -4.27591033554439        1.64161636083754
H            5.45728585748171       -3.48745463178576        1.76334225227691
H            6.04782425153205       -4.08056407318720        0.18567397678334
H            4.44777076917630       -2.41908420102912       -0.03629747850715
H           -0.22011330978584       -1.76955106783293       -1.58175538963740
H           -1.02642374305102       -1.34956319717753       -0.04956286937957
H            0.54291557607265       -2.13756326938724       -0.04222428196741
H           -4.65859467656449        3.00869159797655       -0.23226338453948
H           -3.98557692961787        2.90343771803361        2.68200666125381
H           -5.25070593693735        2.15206090984632        1.90202308372818
H           -5.26786398823551        3.91185237495420        2.11155738151078
H           -2.53116383389668        4.74050894002788        1.02333250751198
H           -3.06155811435222        4.77207705220333       -0.64972745840039
H           -4.14505533138473        5.32298455544103        0.61802438428489
H           -0.90656321656695        3.00281069000399        2.86820479723619
