72
 energy: -6.840456586285 xtb: 6.6.1 (8d0f1dd)
N           -1.55321107499218        2.83277453238856        2.25354134843946
C           -1.58478394069785        2.15634957779422        1.19648769528774
C           -2.77733707616862        2.06999633215966        0.28440284189940
C           -3.37685648398033        0.67574369661545        0.38474553278690
C           -4.35035730550089        0.27465204805094       -0.52999207676548
C           -4.86534025803352       -1.00819570335699       -0.52178931181893
O           -5.81949514026631       -1.47330010646965       -1.37877342073809
C           -6.38815097069354       -0.57883736064467       -2.29382949711037
C           -4.40560796542448       -1.94357749850802        0.42832868076781
O           -4.95582492430137       -3.19221789228876        0.35241786971674
C           -4.59639895307199       -4.12519067498491        1.33879723901796
C           -3.45016037909017       -1.54072290650311        1.34562728246993
C           -2.94506978299883       -0.24556939437420        1.31959786288949
C           -2.20017913147592        2.28111654776890       -1.14375584975633
C           -1.27374279451014        1.16409847100478       -1.65949946823710
C            0.01829564087490        1.11936686480952       -0.92388686669538
N            0.63216487015401       -0.06489972910638       -0.54858161771076
C            2.00962600945010       -0.05623926493123       -0.16253717277857
C            2.94712262297315       -0.55738574514721       -1.28875831387777
C            4.37278318725624       -0.44348480282307       -0.85011317900148
C            5.09211965987577        0.71934038114046       -1.05142055789579
C            6.39981221729056        0.83682263412637       -0.60245660722280
C            7.01173711211681       -0.21327413449409        0.05771694226288
O            8.29158153955441       -0.20826693754155        0.52864076934579
C            9.07393739354597        0.93996117976119        0.31444708873236
C            6.28444731174494       -1.40449613559134        0.27859751019713
O            6.96686846591539       -2.38773199756541        0.93269407917097
C            6.32464953097542       -3.61653155529453        1.14911286563364
C            4.98068246946718       -1.49919136060032       -0.17107090334771
C           -0.05126673832748       -1.32987659928602       -0.60264877639951
C           -3.90048652405823        3.11547883541093        0.56600737208920
C           -4.54868628176597        2.87233172888737        1.92610689217725
C           -3.39369502059319        4.55299961555093        0.49176049296469
H           -4.70642430329767        0.98916240121976       -1.25284622996046
H           -6.85952133971498        0.27024944218101       -1.77925967317814
H           -7.14902557401659       -1.15028770989108       -2.82745078041959
H           -5.64147690237846       -0.20976912205989       -3.00737293337781
H           -4.82415003208896       -3.76099407765356        2.34414086817412
H           -5.18087067150540       -5.02126947391782        1.13396862390750
H           -3.53385158533448       -4.37716596748618        1.29638623968962
H           -3.09215214315924       -2.22421836923165        2.10085818910259
H           -2.21146842816720        0.04326356125642        2.05141960193007
H           -3.03327453454848        2.39287762461756       -1.83572055138785
H           -1.63015249048836        3.20942183262910       -1.15067872034491
H           -1.79360892929158        0.20853598641630       -1.59616470765569
H           -1.08422126413654        1.37602835180505       -2.72507786542644
H           -0.71415456198514        1.62858971704398        0.74799041117319
H            0.67601062127543        1.97228956669324       -1.02858106489140
H            2.14415372158858       -0.68756875447476        0.72452439774801
H            2.30095516208227        0.96272351145921        0.10628902877616
H            2.77120673192905        0.04919333531190       -2.17826971187291
H            2.70238248566372       -1.59462036388755       -1.52952523017051
H            4.63574834753427        1.54559967255611       -1.57106928177099
H            6.93024615310053        1.76050257240027       -0.76928097658412
H            8.64623094500634        1.81863637611854        0.80976936349269
H            9.19365084946777        1.15423569394344       -0.75408275449399
H           10.04549356546474        0.71514923226363        0.75245805038867
H            7.04791837191023       -4.25808253821896        1.65277104448117
H            5.44216833573021       -3.49695241241467        1.78738251741823
H            6.02590548644397       -4.08602905674042        0.20546270907773
H            4.41535284580618       -2.40399760097926       -0.01444679054597
H           -0.22101016845750       -1.66865271012302       -1.63296306892018
H           -1.01862443186314       -1.27935067232804       -0.08918810061161
H            0.55950499448618       -2.07791790205829       -0.10271754905654
H           -4.66968712200120        2.98533678065630       -0.20660139497741
H           -3.80251120153481        2.95007305794733        2.69500334841642
H           -4.99853293587224        1.88551324642213        1.96810840726186
H           -5.30608832453862        3.62365413129142        2.14015777907081
H           -2.58018031017146        4.69287655564701        1.19629880907888
H           -3.04248234503506        4.80087042823774       -0.50347891793341
H           -4.19831055592461        5.24008445974856        0.75255699798672
H           -0.68821947973716        2.82223895989788        2.77791306152423
