72
 energy: 74.343087815145 xtb: 6.6.1 (8d0f1dd)
N           -2.19835435767818        3.12413434272406        2.37606714663737
C           -1.94230308419537        2.22862778659722        1.40662158392922
C           -2.64092763996538        2.42187775542001        0.26887336696252
C           -4.30977054608469        0.59195939546120        1.51458354091894
C           -4.91222463202496        0.36643898078940        0.26587551803825
C           -4.84044721120394       -0.87114583414085       -0.35193688563021
O           -5.41679200029833       -1.18362739463421       -1.55794524126972
C           -6.25032430301130       -0.24478179303631       -2.19350736863039
C           -4.11758634279416       -1.92443602525271        0.24283756570901
O           -4.10837385950303       -3.11557064005736       -0.42598789496108
C           -3.63903593483941       -4.24211623929669        0.28961688452392
C           -3.54622125798678       -1.72524661911882        1.48900268098997
C           -3.62382526089658       -0.46237044418774        2.08750164486566
C           -2.38545297370675        1.83829734115400       -1.04180113052277
C           -1.59154303991994        0.55410318076258       -1.14562808921419
C           -0.17833413022345        0.63814487947692       -0.75516606271702
N            0.50953531718101       -0.36741678670456       -0.13530953519894
C            1.93906783915843       -0.24365457656249        0.03654146012077
C            2.81364036155657       -0.73488780749311       -1.14956650414417
C            4.26723368242941       -0.55556155855919       -0.81169773122221
C            4.91674884833615        0.64594360006616       -1.04364432802817
C            6.24834496909223        0.82224665200260       -0.67913177006374
C            6.96167642436509       -0.20006482727320       -0.07393218940427
O            8.26140515182668       -0.12973985976304        0.33878899695620
C            8.96938064984487        1.06513570702927        0.11456188339085
C            6.31196734185099       -1.43505054381497        0.15935101099152
O            7.07594769846461       -2.39137996002448        0.76728369371557
C            6.49798272911761       -3.64229268573170        1.03095670172224
C            4.98351940637974       -1.58907742476602       -0.20320484863288
C           -0.05138605295704       -1.69133500475737       -0.12294697091578
C           -3.59932134995283        3.59275108074703        0.30902739385408
C           -3.89571938752884        3.86973413943771        1.74675051109499
C           -2.98795014370261        4.78130985745008       -0.37094287940235
H           -5.45510821507012        1.15642986626107       -0.24200713428450
H           -7.11238140318272        0.01600617044188       -1.55282172223156
H           -6.65392918328554       -0.73080208899990       -3.08715184738630
H           -5.64816622479257        0.63314416424626       -2.46131159232604
H           -4.07318980853342       -4.47226234343195        1.26445468399032
H           -3.84663312385636       -5.08926940925378       -0.34672714462461
H           -2.57967511463270       -4.11817100808052        0.44875077720779
H           -3.05111959434112       -2.55361399577494        1.98522706125873
H           -3.12978246864504       -0.28625405707130        3.01936473718405
H           -3.30251832134070        1.74675823072702       -1.62002765194812
H           -1.78997589980910        2.58042461639047       -1.55677971534850
H           -2.08335647190283       -0.20233743237570       -0.54810095471776
H           -1.76799482610539        0.30021712546473       -2.19916552158290
H           -1.26218066089564        1.40668859464020        1.61794842485618
H            0.34567324390736        1.54633788054528       -0.96412418852583
H            2.22336118104527       -0.79814863168785        0.93874424221415
H            2.15049700984300        0.81359795434326        0.21059688297728
H            2.56719532266148       -0.16175994228686       -2.04786041977442
H            2.59920529986944       -1.78783427333568       -1.34748919489442
H            4.38544490546882        1.46360532284887       -1.51108480375262
H            6.72683086594708        1.77310042906613       -0.86531926495732
H            8.51747957028442        1.90632635999149        0.65138455087938
H            9.02620263952703        1.30847432930041       -0.95259040746078
H            9.97181739856928        0.88321167942677        0.50778836149469
H            7.28737657077486       -4.22840454307550        1.50049091009398
H            5.65060162405947       -3.55508078863990        1.71333460810434
H            6.17298498752488       -4.14577943287436        0.11448189852891
H            4.48235995704726       -2.52919832853590       -0.02199322128997
H           -0.30279729320384       -2.10966002088339       -1.10408514293279
H           -0.95381636576062       -1.65923049110573        0.48718526753913
H            0.65864406621614       -2.33889301883367        0.35704622728798
H           -4.49711375315634        3.41187356199327       -0.27465431848643
H           -4.42471185201949        1.61477610018124        2.00105011744091
H           -5.02725370488006        4.06060560208431        1.89945311318820
H           -3.43611696405001        4.68912470237709        2.21294047586753
H           -2.01512827834195        4.97867932014749        0.04510288070116
H           -2.93216299491036        4.56679852883833       -1.41976639591103
H           -3.65846838283494        5.61580269585180       -0.19947742371169
H           -1.94207264802679        2.79183909100867        3.30581446834939
