25
 energy: 0.000000000000 xtb: 6.6.1 (8d0f1dd)
C            3.23720163006194        1.16630919979326        0.08434469647475
N            2.29877817382611        0.07527477071623        0.03981603040599
C            2.58028210190900       -1.21425402444508        0.03006176031096
N            1.43813958087363       -1.93419271955128        0.00098261760884
C            0.39035688448383       -1.05887472636071       -0.00790371836672
C            0.93510056364412        0.21347819449412        0.01709077491437
C            0.09450143893243        1.40504303904423       -0.00410947031874
O            0.49712751527797        2.54126714362870       -0.00342325688240
N           -1.25076640035757        1.06271879480407       -0.03085478223738
C           -2.21907211982101        2.15522099834493       -0.05001256985998
C           -1.81739487048744       -0.20012725993278       -0.04692818574614
O           -2.99983886758376       -0.37846417018721       -0.07008878229737
N           -0.92618586207120       -1.30210215599479       -0.03682761578324
C           -1.46982264913417       -2.64643102187190       -0.06029820460571
H            3.71247264356769        1.21471455160235        1.06488849150277
H            4.00791497605742        1.03430808813993       -0.67357694370751
H            2.69910007168542        2.09770118228144       -0.09130154882931
H            3.56654120610678       -1.63682992603973        0.04233140067262
H           -1.67107961066214        3.09322851271934       -0.02552706933167
H           -2.82428953597071        2.09428624779827       -0.95318082946668
H           -2.87644029173232        2.07745725625962        0.81450067533302
H           -1.17061996399332       -3.19584890659852        0.83242232437030
H           -1.14560257411436       -3.17511610292205       -0.95688275822323
H           -2.55549792440841       -2.55659984320617       -0.07459039797972
H            1.38130855184625       -2.94313852034425       -0.01389874181052
25
 energy: -3.705453137789 xtb: 6.6.1 (8d0f1dd)
C            3.24669613361702        1.16879985217720        0.08047276503878
N            2.31049557880681        0.08763865475403        0.03450779401948
C            2.60214676226622       -1.24016645519485        0.03028858851570
N            1.43034899648235       -1.94771885877863        0.00319291506183
C            0.39936914700187       -1.06237864499246       -0.00761661095081
C            0.93280789804644        0.21640233130073        0.01338378034985
C            0.10735008247576        1.39392300357330       -0.00547454646580
O            0.50966334387836        2.55716293834961       -0.00878837980422
N           -1.25704961402707        1.06028106323195       -0.02950895379505
C           -2.21704277215275        2.16934977815063       -0.04146928595645
C           -1.81851845081751       -0.19847203601868       -0.04808151229191
O           -3.01473357822897       -0.38490950249419       -0.06710781430888
N           -0.93114746873506       -1.30450107551730       -0.03598613124768
C           -1.46405005693933       -2.65092652853113       -0.05679695027325
H            3.72132052408151        1.21928829840147        1.06389709825213
H            4.01702958145942        1.02919753939033       -0.67926673378320
H            2.70075961314121        2.09251845772835       -0.10190733814768
H            3.58055677459611       -1.66594080670938        0.04338746592951
H           -1.76036290786300        3.17064581800722        0.01365864808061
H           -2.78501952662912        2.14186333747344       -0.95383261989233
H           -2.92172546193618        2.04406142526447        0.77610062423036
H           -1.16071463929300       -3.20133147321078        0.83639014565421
H           -1.13084493471256       -3.18495626119440       -0.94941288651360
H           -2.54977148630019       -2.56900414922012       -0.07434457435168
H            1.36465112971787       -2.95179810376881       -0.00865159120264
25
 energy: 0.283082477637 xtb: 6.6.1 (8d0f1dd)
C            3.26114262591564        1.16117696530035        0.06924457725868
N            2.32281401076270        0.09155448213587        0.02275360506452
C            2.62066586203521       -1.27122824952468        0.03077404966647
N            1.41824389906661       -1.95932255182809        0.00814552994337
C            0.40894785406748       -1.06525298099514       -0.00593839649432
C            0.93135637415062        0.21845187298695        0.00694262797103
C            0.12552853175942        1.37998421698623       -0.00779781351309
O            0.51993043884579        2.56004396650178       -0.02140416361720
N           -1.26547365394454        1.07032175096972       -0.02287088392819
C           -2.22417512709869        2.19245440946774       -0.02846671624204
C           -1.81513499418676       -0.18783891458592       -0.04406617918768
O           -3.01789930266985       -0.38972035465913       -0.05924899672703
N           -0.93588233731859       -1.30017265237261       -0.03243539701031
C           -1.45062479918604       -2.65348628496826       -0.04938554685103
H            3.73525597568798        1.22324939932550        1.05490643762839
H            4.03509667478187        1.01585422319954       -0.68830563187241
H            2.71115045030825        2.07984961195532       -0.12410946516735
H            3.59043449989620       -1.70214512267425        0.04456382543079
H           -1.89978088520262        3.27538951975071        0.11865063860159
H           -2.70529076072021        2.23518856270384       -0.98710357074544
H           -3.01719427511772        1.96735758344104        0.70231760273494
H           -1.14219339522946       -3.20357621968763        0.84534997974608
H           -1.10220191994196       -3.19613581323866       -0.93435429646215
H           -2.53712491587529       -2.59223700844573       -0.07342266568248
H            1.34462383715020       -2.96073180957248        0.00229474560215
25
 energy: 8.611580656264 xtb: 6.6.1 (8d0f1dd)
C            3.27507696645955        1.14760998900267        0.05221784769843
N            2.33165470134646        0.08680160529183        0.00755539478889
C            2.63036639750236       -1.29875020043651        0.02924578987948
N            1.40855334005741       -1.96927085395429        0.01316583268299
C            0.41543459098823       -1.06904322180551       -0.00231712427891
C            0.93095649982712        0.21794818571539        0.00102181459085
C            0.13790307493483        1.37299501369898       -0.00720957943445
O            0.52282980047056        2.56031231595652       -0.03473334609867
N           -1.27733737603642        1.08842367865323       -0.00197916971278
C           -2.24182305205241        2.21920044027925       -0.01409211605607
C           -1.81377273357636       -0.17528320168033       -0.02855740232076
O           -3.01735169323389       -0.39633108265820       -0.04371335809647
N           -0.93865433507858       -1.29303000975822       -0.02491072157121
C           -1.43256022769336       -2.65532749719781       -0.04006199486940
H            3.74713161415651        1.22355256305636        1.03966089595893
H            4.05479999069579        0.99553291419630       -0.69969081472563
H            2.72762140396106        2.06545535570554       -0.15442759892487
H            3.59503057148968       -1.73503840781496        0.04205082096034
H           -2.04403036827140        3.35853775698886        0.26499640248907
H           -2.58699519069082        2.36202896284497       -1.04406402745829
H           -3.14016999597385        1.87836524912424        0.59088390037778
H           -1.11853318270544       -3.20144402648752        0.85750172046882
H           -1.06508525497919       -3.20235506700799       -0.91735158635077
H           -2.51994886948677       -2.62143714143411       -0.07258164089765
H            1.33111799582521       -2.97042471810670        0.01442395704762
25
 energy: 16.002647087179 xtb: 6.6.1 (8d0f1dd)
C            3.28439258267817        1.13224680116919        0.03754013470047
N            2.33466393546418        0.07639352297142       -0.00618360845176
C            2.63080194191811       -1.31690798841921        0.02584163492146
N            1.40351785090200       -1.97611849504624        0.01547654494240
C            0.41749310680446       -1.07388554220170        0.00216180665166
C            0.92994522916742        0.21444248841942       -0.00288909681706
C            0.14005342273128        1.37084540842596       -0.00525815363385
O            0.51565494349314        2.55564199966041       -0.04646375469056
N           -1.29358606041047        1.10624176659881        0.03428722440444
C           -2.26421182215922        2.24533963973642       -0.00456482454736
C           -1.81706962420652       -0.16734163875096        0.00080786261540
O           -3.01586176952949       -0.40910860296599       -0.01903265413377
N           -0.93971453319799       -1.28712951009962       -0.01508923651865
C           -1.41292862368040       -2.65887683593896       -0.03508198050956
H            3.75178841233605        1.22015434457302        1.02687692733722
H            4.07148104756392        0.97347342889665       -0.70590221786297
H            2.74466845893087        2.05260837871710       -0.18224345151166
H            3.59454974769303       -1.75672176840831        0.03608180180684
H           -2.17354081304795        3.40506063869629        0.37722663719683
H           -2.46825716884173        2.48618901770751       -1.07471930640736
H           -3.22898885328165        1.83198523896669        0.46595966578465
H           -1.09483483794897       -3.20057198973596        0.86490333409582
H           -1.02490004284525       -3.20244456910026       -0.90719749378295
H           -2.50058642609795       -2.65363107494313       -0.07782752672999
H            1.32768456350125       -2.97885605675657        0.02232362728757
25
 energy: 18.218055581939 xtb: 6.6.1 (8d0f1dd)
C            3.28796722653139        1.11488172593924        0.02735457214648
N            2.33136813523947        0.05774868659097       -0.01772832264820
C            2.61903568635448       -1.32208651556202        0.02172231293738
N            1.40475233317415       -1.97799745341523        0.01564233346018
C            0.41387456251546       -1.07968722290408        0.00600732058271
C            0.92964949338953        0.20726015504780       -0.00590053638753
C            0.13307738065473        1.37529681806725       -0.00612341220394
O            0.49954198016884        2.54366716897767       -0.05985933457617
N           -1.31228171305043        1.12532812111266        0.08444133292857
C           -2.29115844927874        2.27152674934973        0.00012696611969
C           -1.82506024298895       -0.16318117628100        0.03827048085579
O           -3.01123795948871       -0.42692355567465        0.01162831495107
N           -0.93847899803759       -1.28149273108417       -0.00578685685035
C           -1.39431535642648       -2.66277142456920       -0.03482388015434
H            3.74756078173651        1.21305399015404        1.01859513570111
H            4.08400112490525        0.95140615181658       -0.70457709709466
H            2.76093842316579        2.04124978459317       -0.20447711581235
H            3.58734172604287       -1.76364573193490        0.02795308845154
H           -2.29815918497749        3.40861777147015        0.44329294563681
H           -2.35191456394082        2.59504114526693       -1.05342684710198
H           -3.25847724388097        1.82697462776340        0.32401420203321
H           -1.07575152253890       -3.19940166322724        0.86769641089937
H           -0.98636652840970       -3.19579053446805       -0.90379162965329
H           -2.48073451217946       -2.68516765039704       -0.08959778392135
H            1.33704208925605       -2.98487863446007        0.02638129584751
25
 energy: 18.797526521465 xtb: 6.6.1 (8d0f1dd)
C            3.28449601413281        1.10553583853702        0.01549426482923
N            2.32495850601411        0.04676334357259       -0.02945580466309
C            2.60353724858025       -1.30872913240888        0.01251815672537
N            1.40915242355836       -1.97427319519585        0.01568644965746
C            0.40499426327097       -1.08156205600695        0.01281433750810
C            0.92797114565514        0.20372429737101       -0.00051929805094
C            0.12401521471052        1.38096437481642        0.00907540583251
O            0.48862015083647        2.53959521668180       -0.07659686315783
N           -1.31992007376086        1.13016592901783        0.14219223355609
C           -2.29740434057743        2.28935030536743        0.00350438332581
C           -1.83694229125961       -0.16490865206683        0.06704765307602
O           -3.01478601688222       -0.43820558235261        0.04665070241338
N           -0.93934929243989       -1.27953549752442        0.00645967804371
C           -1.38867111638420       -2.66539198856470       -0.03009173983489
H            3.73489415179129        1.20336547250930        1.00928141928620
H            4.08356273063984        0.93197195649778       -0.70918637652689
H            2.76641828137095        2.03411479884552       -0.22424322917768
H            3.57649545410234       -1.74827585032216        0.00872414111713
H           -2.38870968497559        3.37626576726988        0.52280742813345
H           -2.18013767539627        2.68309508893926       -1.01817583774117
H           -3.29198022957793        1.79359766494598        0.13833521196345
H           -1.07129181215336       -3.19975422761891        0.87295551501576
H           -0.96800942639822       -3.18383703383004       -0.89946218960780
H           -2.47162976396966       -2.70171969667353       -0.09424505664854
H            1.35193080704852       -2.98328853963500        0.02546331107237
25
 energy: 16.663184490555 xtb: 6.6.1 (8d0f1dd)
C            3.27512084074031        1.10727428095520        0.01083909180813
N            2.31580038494822        0.04558724103647       -0.03621726433305
C            2.58731419897375       -1.28082877198614        0.00514354476506
N            1.41416875006511       -1.96665840594539        0.01620129053238
C            0.39310414446174       -1.07918741847014        0.02133812030936
C            0.92386063527597        0.20489707676024        0.01090887192472
C            0.10750849512378        1.38387452814841        0.02454764687860
O            0.47702872859929        2.53977932936602       -0.10291061567404
N           -1.31986027357893        1.11692071131034        0.18982595483757
C           -2.29009432084570        2.28800377719832       -0.00071925752934
C           -1.84991619406620       -0.17481865532680        0.08960460058640
O           -3.02398478689836       -0.44365820392174        0.07172296623802
N           -0.94196702861712       -1.28342557564497        0.01843556161460
C           -1.39491529919187       -2.66890540048532       -0.02909198784612
H            3.71727345374682        1.19741744774795        1.00743393238563
H            4.07407613882460        0.92447308087477       -0.70963870587988
H            2.76084422232042        2.03484963038085       -0.23120709527465
H            3.56444685855921       -1.71821807952551       -0.01050630836840
H           -2.45028058955942        3.29520127581694        0.55474135648345
H           -2.02396181743623        2.73206963711391       -0.93098956939155
H           -3.24360527409673        1.79301985305134       -0.03245824133907
H           -1.07996905210827       -3.20560214527622        0.87156088979194
H           -0.96983453212842       -3.17365638680554       -0.90166226846605
H           -2.47492843664277       -2.70349188587944       -0.09810533237537
H            1.36498542146715       -2.97588833832161        0.01823671446889
25
 energy: 21.323143246232 xtb: 6.6.1 (8d0f1dd)
C            3.26993245336113        1.11041089461940       -0.00331818039909
N            2.30997237597593        0.05251156044377       -0.05064498008567
C            2.58349520186907       -1.27044819861822       -0.00503574205042
N            1.41293345236609       -1.96697870412126        0.01752549072404
C            0.38791620339712       -1.07922087735200        0.03296786362870
C            0.91576385050343        0.20765704362483        0.02110652756217
C            0.09464968602578        1.37674275589444        0.04320268464334
O            0.46468686337571        2.53933111953315       -0.12664813265627
N           -1.32482900945839        1.10256970580811        0.24716691370185
C           -2.28091698295377        2.29058151542479        0.00295460809369
C           -1.85918000882204       -0.18331559498918        0.12336351061506
O           -3.03540625690441       -0.45274041306698        0.10456385884113
N           -0.94724927773991       -1.28919804508470        0.03768247471545
C           -1.39612200022054       -2.67559922287587       -0.02131354120878
H            3.70705583414472        1.19774245296851        0.99598854604243
H            4.06930147936589        0.91543185693592       -0.72029492796491
H            2.75734701951239        2.03538608889418       -0.25174994823872
H            3.56023422062767       -1.70646570684707       -0.03462923078953
H           -2.57348143802105        3.25683573035430        0.66797580443062
H           -1.78072117423345        2.85368368663333       -0.88630870465452
H           -3.27115521102528        1.75003001010529       -0.26718702814103
H           -1.08024825094149       -3.21617015944618        0.87672471771326
H           -0.96377129535143       -3.17177699564886       -0.89565871943971
H           -2.47547888240036       -2.71351529206477       -0.09454529803025
H            1.36748581548354       -2.97445660895302        0.01314532909437
25
 energy: 16.922119630341 xtb: 6.6.1 (8d0f1dd)
C            3.26719145794180        1.11866564166245        0.00251090882562
N            2.30862048981085        0.06221251433037       -0.04607252610380
C            2.59027694365468       -1.27546637968632       -0.00194066353195
N            1.41005657986793       -1.96880684103164        0.01858293122469
C            0.39139063479347       -1.07821637587782        0.03341055192133
C            0.91284638346981        0.21003148016423        0.02130248389400
C            0.09419096630646        1.37180814934855        0.03464346883836
O            0.46573045199627        2.53619245030899       -0.11855828095784
N           -1.32071634781518        1.09747913446044        0.22345769662192
C           -2.26511545380018        2.28396576605167       -0.00419967855916
C           -1.85327086634427       -0.18379139639339        0.11533781818498
O           -3.03478437202804       -0.44516353630602        0.09505789088509
N           -0.94843857987445       -1.29262145200998        0.03778352123583
C           -1.40028967113655       -2.67617278095326       -0.02340354062218
H            3.70707855407060        1.20557462387799        1.00155145682784
H            4.06645083104958        0.92670691977682       -0.71622645126481
H            2.75119528841101        2.04306648338229       -0.24400493133866
H            3.56457691816084       -1.71108136769605       -0.03227566285696
H           -2.55462877977066        3.25755781212444        0.62785080835887
H           -1.82729207407805        2.81745366244324       -0.85123474073071
H           -3.23049802553373        1.76889092325595       -0.23597551856676
H           -1.08607036143695       -3.22266063913993        0.87236984062626
H           -0.97376969775138       -3.17634879596769       -0.89956974689276
H           -2.48214895156559       -2.70539256976474       -0.09417196793393
H            1.35963234953807       -2.97485482418870        0.01080822806199
25
 energy: 15.580460008497 xtb: 6.6.1 (8d0f1dd)
C            3.25792615111412        1.13065898191899        0.00367888785986
N            2.30196137469435        0.07341451998230       -0.04603530630227
C            2.59509401132202       -1.27392649038281       -0.00410828998980
N            1.40925497232772       -1.96956912825113        0.01781822228839
C            0.39254683489397       -1.08011507696178        0.03668210308032
C            0.90522294425528        0.20968659322210        0.02535994721937
C            0.08203314994205        1.36282698113653        0.03591393321770
O            0.45507926068454        2.52891672253657       -0.10562437591658
N           -1.32477320474234        1.08392126654244        0.22437716631175
C           -2.25160836301868        2.27420943944351       -0.00970076909901
C           -1.85232802632054       -0.19369405595838        0.11731825589332
O           -3.03835034153472       -0.44738355852883        0.09415761876506
N           -0.95045158150073       -1.30257128571707        0.04468420583776
C           -1.40623953354675       -2.68227557480556       -0.02098127114215
H            3.70202135366787        1.21826151037644        1.00147881975100
H            4.05585934597466        0.94278738452008       -0.71767354666235
H            2.73850778383573        2.05410861317551       -0.24040288176173
H            3.56854398275339       -1.70609455300225       -0.04207713384518
H           -2.57831377650371        3.21745710554403        0.61522458534198
H           -1.75468110905281        2.84472009189858       -0.79002148296029
H           -3.17921357298787        1.79760381337028       -0.30016101957125
H           -1.09373974598042       -3.23671862812205        0.87100864912813
H           -0.98971175371220       -3.18421742033266       -0.90109934751994
H           -2.48969030102712       -2.69848371267440       -0.08659014020525
H            1.35726481239851       -2.97449493675855        0.00380706642838
25
 energy: 16.635146123933 xtb: 6.6.1 (8d0f1dd)
C            3.24935094755476        1.13994598832960        0.00156106518977
N            2.29605869762043        0.08105588156884       -0.04775060751277
C            2.59980050040994       -1.27391467443572       -0.00828497863196
N            1.40916584038477       -1.97098506755773        0.01537556346482
C            0.39407095422351       -1.08321035545787        0.04035554124873
C            0.89982296048426        0.20683745934506        0.03045552029424
C            0.07361678236258        1.35600335904645        0.04381572665455
O            0.45163312296359        2.52304430492725       -0.08747439756653
N           -1.32682938295559        1.07606600160494        0.23402341747587
C           -2.23234720021852        2.27246128813922       -0.01823578330594
C           -1.84950567931406       -0.20068482803569        0.12292386073800
O           -3.03906732403795       -0.44661628516296        0.09296022350373
N           -0.95133935051472       -1.31092021447357        0.05422006274402
C           -1.41299753707016       -2.68645605934931       -0.01539276106733
H            3.69896245454038        1.22906381693155        0.99717106920862
H            4.04466625948287        0.95756775281324       -0.72414577425417
H            2.72649534495754        2.06299284920953       -0.23861570062055
H            3.57286848692511       -1.70205668274820       -0.05662400921263
H           -2.64159659453693        3.18608023533311        0.62668249821446
H           -1.64783339830161        2.87443212427006       -0.69024051367399
H           -3.15131799650087        1.80342397714477       -0.44046061253450
H           -1.10084169636177       -3.24855114391004        0.87233446448632
H           -1.00864218066561       -3.19100122306877       -0.90003455027688
H           -2.49818029846362       -2.69015824003401       -0.07321671480473
H            1.35620095496798       -2.97539166225781       -0.00436871361394
25
 energy: 15.921053072344 xtb: 6.6.1 (8d0f1dd)
C            3.24426680777128        1.14249156077471        0.00022464763383
N            2.29286048176296        0.08082641482591       -0.04675067655101
C            2.60028620133213       -1.27297423557727       -0.00933835370423
N            1.41109198083211       -1.97087888241905        0.01276134999637
C            0.39355901923389       -1.08694918712460        0.03990996414754
C            0.89763302636642        0.20263582162743        0.03194426332202
C            0.06796836778186        1.35376703020660        0.05194588044316
O            0.44957021640845        2.52125532933381       -0.07339771393045
N           -1.33554129595411        1.07345617774577        0.23404906877249
C           -2.23666215024667        2.26985324903729       -0.02518806997714
C           -1.85233941126887       -0.20751934520019        0.12045716928709
O           -3.04095478852159       -0.45422903422564        0.08525011927550
N           -0.95101405734556       -1.31535868659267        0.05599617415136
C           -1.41424386708259       -2.68993363687546       -0.01148392204503
H            3.69790049604787        1.23202435443351        0.99373639239505
H            4.03725728812031        0.96514117664151       -0.72958498596593
H            2.71920917519521        2.06574710138907       -0.23545097012109
H            3.57491943971785       -1.69725545487664       -0.06168613963752
H           -2.65993384304065        3.16313026579239        0.62954259826443
H           -1.60277561123783        2.90712548326383       -0.66347159808828
H           -3.12709261423598        1.82061224377883       -0.47923189873522
H           -1.09916228296767       -3.25138983034066        0.87528884546697
H           -1.01541977386016       -3.19551116783562       -0.89824521869044
H           -2.49992826540045       -2.69100682322152       -0.06363441302224
H            1.36076012852814       -2.97603132238941       -0.00660861654000
25
 energy: 15.832056329525 xtb: 6.6.1 (8d0f1dd)
C            3.24411259269650        1.14076958702590        0.00020688956230
N            2.29335536930449        0.07766472649292       -0.04383226745507
C            2.59994696512677       -1.27388038593619       -0.00867031110509
N            1.41225531035820       -1.97074494569401        0.01005604746857
C            0.39334117171022       -1.08851390980573        0.03798618051853
C            0.89906968139458        0.20030996465308        0.03200764798052
C            0.07035639359090        1.35498131520284        0.05819441048634
O            0.45522640139570        2.52227937867243       -0.06120765839421
N           -1.33889959855564        1.07707503471577        0.22942443785517
C           -2.24151391000256        2.27171110040847       -0.03028188410319
C           -1.85332928777614       -0.20760920634735        0.11636630054823
O           -3.04051079302993       -0.45610563305533        0.07731361038902
N           -0.95012562244621       -1.31449651515122        0.05422683297031
C           -1.41363240581359       -2.68958866604389       -0.01037749525567
H            3.70085923830076        1.22943818253573        0.99203782502636
H            4.03477490511860        0.96658132640639       -0.73320065550168
H            2.71744133766503        2.06434813206678       -0.23147431357417
H            3.57569109384709       -1.69642594296414       -0.06154478605642
H           -2.65641561035121        3.16426994382856        0.62112822687528
H           -1.61642122404355        2.90039975239657       -0.65808145567143
H           -3.12547624179971        1.83023491446527       -0.47585720035986
H           -1.09510602495081       -3.24882074014784        0.87627372845414
H           -1.01712734994839       -3.19579657908990       -0.89796810900819
H           -2.49936476201202       -2.69242589978886       -0.05888212289314
H            1.36370703815723       -2.97662633267433       -0.00680998260944
25
 energy: 16.120243456309 xtb: 6.6.1 (8d0f1dd)
C            3.24353721598237        1.14066578255218       -0.00082821018911
N            2.29287719849478        0.07745110678023       -0.04204288236857
C            2.59929207711081       -1.27360468042833       -0.00783823697608
N            1.41232010620283       -1.97085402413199        0.00851497118224
C            0.39260618903219       -1.08919330651500        0.03714221830098
C            0.89857129590018        0.20006630278734        0.03186337848683
C            0.07081843444858        1.35393716747074        0.06073406241710
O            0.45672442072432        2.52161206033565       -0.05344209312717
N           -1.34160771603692        1.07662226244315        0.22785088349192
C           -2.24114036160014        2.27299523813978       -0.03212114208375
C           -1.85490723310809       -0.20851479556798        0.11476036656478
O           -3.04170953399818       -0.45756604434407        0.07398510873124
N           -0.95059579746806       -1.31457365539029        0.05391453535370
C           -1.41322837361013       -2.69038072623724       -0.00906563197049
H            3.70279732376386        1.22816676600559        0.98988770145814
H            4.03230811440806        0.96688551760327       -0.73666228570970
H            2.71553210783406        2.06407793218957       -0.23036214922034
H            3.57551558679829       -1.69507347580885       -0.06211537357596
H           -2.66546337970446        3.16123511213922        0.62130437225109
H           -1.60524242059300        2.90768206581646       -0.63880902192175
H           -3.12360074501841        1.83402971930998       -0.49755349851276
H           -1.09161486097854       -3.24839409054402        0.87721668745291
H           -1.01768045130613       -3.19653106240754       -0.89729004604851
H           -2.49907363066801       -2.69487109054743       -0.05554561348730
H            1.36517910132610       -2.97684147947849       -0.00646420435222
25
 energy: 16.417525044768 xtb: 6.6.1 (8d0f1dd)
C            3.24396950650659        1.14011275813944       -0.00174372609295
N            2.29289093798973        0.07731448422486       -0.03975865936184
C            2.59825739912419       -1.27336992157362       -0.00619487126030
N            1.41188545396641       -1.97089909941941        0.00753659855422
C            0.39177441285159       -1.08932321866464        0.03595588048804
C            0.89801184367518        0.20075714562562        0.03105436570393
C            0.07167785942848        1.35341116699198        0.06146704368330
O            0.45681248158937        2.52204748041788       -0.04839203927673
N           -1.34381039322297        1.07572815623726        0.22461600227936
C           -2.24215555542352        2.27313402516550       -0.03327146002117
C           -1.85654894497495       -0.20880131987213        0.11256671472156
O           -3.04302146218524       -0.45895872244185        0.07156486970605
N           -0.95125072243797       -1.31417958615819        0.05243936221286
C           -1.41240552841290       -2.69091778977065       -0.00851404422393
H            3.70560909848895        1.22673973267189        0.98795142988438
H            4.03094303223576        0.96571164694948       -0.73948587344734
H            2.71528290806639        2.06339110764285       -0.22988685419211
H            3.57472120167547       -1.69448579274703       -0.06110433302814
H           -2.67164071703977        3.16135232485432        0.62310400088901
H           -1.59995967162589        2.91228098070274       -0.62976297535316
H           -3.12156691328431        1.83658667010437       -0.50556210276327
H           -1.08831352153758       -3.24725796053597        0.87789078274604
H           -1.01679414177459       -3.19698318468288       -0.89675046320623
H           -2.49807051203157       -2.69747948659391       -0.05397762614267
H            1.36591661628949       -2.97688299509599       -0.00470812635168
25
 energy: 16.468543101470 xtb: 6.6.1 (8d0f1dd)
C            3.24469986498684        1.13967709760116       -0.00243172927147
N            2.29319314609628        0.07716947584272       -0.03739782039995
C            2.59729230568344       -1.27302454978189       -0.00464242431490
N            1.41146253932110       -1.97077447727751        0.00662284324335
C            0.39111259561967       -1.08921548962698        0.03480776186961
C            0.89752406869905        0.20163022142278        0.03038722509161
C            0.07227904660706        1.35326925892466        0.06241857710097
O            0.45544754078488        2.52290632568892       -0.04502849374008
N           -1.34539732487515        1.07444787212909        0.22330802514579
C           -2.24299720542728        2.27327488511798       -0.03277304622485
C           -1.85797412799430       -0.20890276766224        0.11180410248541
O           -3.04413003468150       -0.46037115200214        0.07108435929719
N           -0.95177968366553       -1.31390345300261        0.05052508852221
C           -1.41163896382083       -2.69137273211310       -0.00890838150145
H            3.70846369594917        1.22606778280369        0.98632409196993
H            4.03014101966873        0.96461767225744       -0.74160026252731
H            2.71575405602364        2.06288965975242       -0.22966628523893
H            3.57388644235903       -1.69428699993814       -0.06003195276877
H           -2.66999633808528        3.16164110106551        0.62144321708274
H           -1.59858294659127        2.91315910254846       -0.62738461533439
H           -3.12388014927184        1.83995494049628       -0.50579437978983
H           -1.08615299096966       -3.24636884756958        0.87779862976974
H           -1.01575380736311       -3.19734655976837       -0.89693592691906
H           -2.49703485844128       -2.69936774953076       -0.05385568147931
H            1.36627677732446       -2.97674201520588       -0.00303902592108
25
 energy: 16.595440299279 xtb: 6.6.1 (8d0f1dd)
C            3.24546553651577        1.13931538445654       -0.00279325170256
N            2.29375103169190        0.07691942209921       -0.03515594617224
C            2.59684802059155       -1.27302933916924       -0.00304763961821
N            1.41111696550483       -1.97062425401438        0.00628690981170
C            0.39094210676360       -1.08895391116891        0.03398165811511
C            0.89734364528774        0.20229061899550        0.02967474786163
C            0.07297488128349        1.35374258686880        0.06228836450145
O            0.45383987095297        2.52406563277450       -0.04483924845722
N           -1.34552468104635        1.07362792938150        0.22234920254631
C           -2.24329253521859        2.27326808500922       -0.03266716206498
C           -1.85837610066737       -0.20837681075623        0.11137751720298
O           -3.04438950793500       -0.46103394965910        0.07224156362542
N           -0.95192802536927       -1.31377598742848        0.04845468447147
C           -1.41136686220550       -2.69139468217790       -0.00972325899041
H            3.71044537251845        1.22657390461755        0.98537166742559
H            4.03007377719116        0.96347993076709       -0.74255891554891
H            2.71664392724443        2.06248514171667       -0.23021407541827
H            3.57329293036385       -1.69486960318108       -0.05909603587490
H           -2.66875478115809        3.16511730825072        0.62276799992934
H           -1.59973932178320        2.90990687293467       -0.63060122493790
H           -3.12517217939617        1.83990150100728       -0.50103659771597
H           -1.08625540342548       -3.24567677484423        0.87756014445202
H           -1.01509834368328       -3.19775609370009       -0.89719013554159
H           -2.49659044923541       -2.69961170288987       -0.05498064234735
H            1.36596479315034       -2.97656260771784       -0.00141642940530
25
 energy: 16.538073988177 xtb: 6.6.1 (8d0f1dd)
C            3.24502250552502        1.13970297587151       -0.00268797801723
N            2.29372449487482        0.07690198528488       -0.03446072496561
C            2.59728330825720       -1.27306686308642       -0.00273396931880
N            1.41139120664443       -1.97054768921068        0.00619437276918
C            0.39118411717014       -1.08910131465924        0.03403399429867
C            0.89735786617612        0.20188115385419        0.02978590997670
C            0.07267476614627        1.35377146644684        0.06248930405026
O            0.45348430272540        2.52385939126817       -0.04546861941979
N           -1.34534830128214        1.07349591240727        0.22299748803016
C           -2.24283054542096        2.27347670725282       -0.03249560088193
C           -1.85811434416814       -0.20851859312834        0.11167025618151
O           -3.04413003480327       -0.46130051719997        0.07308279136768
N           -0.95167886532173       -1.31429051033040        0.04806361711671
C           -1.41173249696180       -2.69151430476652       -0.00994754573724
H            3.70992716617062        1.22781334928383        0.98542281511398
H            4.02977205718920        0.96405481880599       -0.74238925143873
H            2.71602094067252        2.06274854025208       -0.23049511471077
H            3.57365304019630       -1.69489502506689       -0.05973932049518
H           -2.66627702862333        3.16528847104686        0.62215102028012
H           -1.59924987412118        2.90960441972931       -0.63176638298205
H           -3.12560097272029        1.83951300203499       -0.49991274507136
H           -1.08743082568985       -3.24608527277584        0.87749127916170
H           -1.01570699487967       -3.19839925198471       -0.89726161651676
H           -2.49713814360016       -2.69883607253517       -0.05530553729619
H            1.36595732378084       -2.97652817662264       -0.00168454534782
