25
 energy: -42.436932549424 xtb: 6.6.1 (8d0f1dd)
C            3.25254861996405        1.12188297449810        0.00632253201794
N            2.32871706780134        0.02087992555272        0.03668197084211
C            2.61372846968763       -1.30012402775836       -0.03387752896465
N            1.46161033114639       -2.00917567670050       -0.01727416807517
C            0.41650563455555       -1.14524293633943        0.01607961087914
C            0.93281855438859        0.15673083086965        0.02314713051516
C            0.12596766389649        1.30766842255283        0.01072328016922
O            0.47019573212061        2.48837905537081       -0.06429262956038
N           -1.29963067990978        0.98755535472459        0.03893108628226
C           -2.12785124429986        2.03264548689940       -0.14893301724125
C           -1.82081886099560       -0.31327431295887        0.04823704087404
O           -3.01250319755131       -0.54850596078557        0.07354952910531
N           -0.91178794077101       -1.38604827064714       -0.00501666134796
C           -1.40010642814666       -2.74887893745265       -0.02177401238957
H            3.73237274295396        1.24129321786828        0.98146979971862
H            4.03147649769881        0.95423686227399       -0.73788223144049
H            2.70828280267476        2.03648590700518       -0.23150192710550
H            3.59452030979758       -1.72114468679393        0.02776906120038
H           -3.19776979965025        4.55650988913177        0.29955650624694
H           -1.59381722298441        2.94780332372913       -0.41360741601434
H           -3.16900526064982        1.84331709294251       -0.33732900563427
H           -1.09431403537644       -3.27787528233302        0.88438395096876
H           -1.01188171086036       -3.26480673238325       -0.89924619698936
H           -2.48728414754832       -2.71431323149258       -0.06818072084726
H            1.41799991505293       -3.01513889152248        0.02530852826033
