25
 energy: -42.244518011875 gnorm: 0.003020725509 xtb: 6.6.1 (8d0f1dd)
C            3.31610850833546        1.58252988239815        0.03634684562739
N            2.56699050411527        0.35265815600307        0.02775967418389
C            3.04949817344467       -0.88298762744779        0.04163227556720
N            2.04099816873526       -1.77590014306423        0.03505069988566
C            0.86560890284870       -1.08589289800245        0.01645078022674
C            1.19788128692718        0.26535103506829        0.01217721069641
C            0.17128753214247        1.27938708612842       -0.01322126768078
O            0.33096559521841        2.47580980281017       -0.02681935993264
N           -1.10740325919190        0.68715381376682       -0.02275661469777
C           -2.25655177252158        1.57551468893263       -0.04436237231639
C           -1.32136352149203       -0.65916730610151       -0.01489121336686
O           -2.58131402132396       -1.00507409665976       -0.02677483737583
N           -0.37631847925563       -1.57155709296159        0.00314459094688
C           -2.89420063800309       -2.39531548224469       -0.01655211060740
H            3.87066502109699        1.68289570470321        0.96997545354311
H            4.02052729459888        1.60477310792715       -0.79480964452132
H            2.61696612908498        2.41355454497098       -0.05494648923482
H            4.09108013867192       -1.13942611877149        0.05533087325137
H           -1.88313111807842        2.59792506478992       -0.04678878119418
H           -2.85268350842962        1.39411316917115       -0.93747327935314
H           -2.87580256175560        1.40642628638467        0.83531154607458
H           -2.45156621614623       -2.88216537293843        0.85304234270749
H           -2.52650482667488       -2.87464679093982       -0.92276660012656
H           -3.98059868027296       -2.44536018971669        0.02549272701631
H            2.12929286202431       -2.78236068260419        0.04161916858136
