25
 energy: -42.567153715634 xtb: 6.6.1 (8d0f1dd)
C            3.38034483189249        1.09690170584054        0.11962255473262
N            2.36212255183017        0.09611631422604        0.04396853676677
C            2.62818559702744       -1.26508257474295        0.03724976882681
N            1.42660827504763       -1.92706420908224       -0.02327479784153
C            0.43184909460623       -1.02061868335907       -0.00673513705652
C            0.95722739779269        0.26546987804622        0.03516642031860
C            0.13108545822833        1.42915486318570        0.01169726860718
O            0.52400009537334        2.59224664699744        0.10428658522871
N           -1.30989311238197        1.10675899647025       -0.14891838101871
C           -2.40343657170328        2.13396813901153       -0.15419603213927
C           -1.80129487272334       -0.15512712528933       -0.04753821408303
O           -2.99586633215182       -0.37695826422885       -0.00810513336939
N           -0.90872447808450       -1.24323919938411       -0.01242578307420
C           -1.43518533279348       -2.58515450863185       -0.04382215564011
H            3.83583009452404        1.13211029082422        1.11683898065414
H            4.17395614406871        0.88322985777614       -0.60443092099854
H            2.92731538098247        2.05885614740671       -0.09978583069335
H            3.59110314375424       -1.71750643148945       -0.03794000037046
H           -1.87550396692895        3.08848072234305       -0.14100322549458
H           -3.33121526236485        2.07601512265675       -0.83478729578342
H           -2.99040619317930        1.99794180191826        0.74296855567063
H           -1.12722566580394       -3.14275901167826        0.84351123274593
H           -1.10049561893600       -3.10607160430509       -0.94455198556194
H           -2.51989121474427       -2.49400421721535       -0.05888754812853
H            1.34223932294136       -2.92952550867720       -0.06242683668302
