25
 energy: 0.000000000000 xtb: 6.6.1 (8d0f1dd)
C            3.23720132972391        1.16630909158653        0.08434468864950
N            2.29877796055224        0.07527476373246        0.03981602671198
C            2.58028186251803       -1.21425391179017        0.03006175752192
N            1.43813944744728       -1.93419254010258        0.00098261751768
C            0.39035684826767       -1.05887462812143       -0.00790371763344
C            0.93510047688824        0.21347817468824        0.01709077332874
C            0.09450143016486        1.40504290868848       -0.00410946993748
O            0.49712746915594        2.54126690785742       -0.00342325656480
N           -1.25076628431515        1.06271869620815       -0.03085477937476
C           -2.21907191394203        2.15522079838987       -0.05001256521996
C           -1.81739470187490       -0.20012724136556       -0.04692818139228
O           -2.99983858926755       -0.37846413507442       -0.07008877579474
N           -0.92618577614240       -1.30210203518959       -0.03682761236648
C           -1.46982251276835       -2.64643077634382       -0.06029819901142
H            3.71247229913541        1.21471443890471        1.06488839270555
H            4.00791460421487        1.03430799217987       -0.67357688121503
H            2.69909982127087        2.09770098766290       -0.09130154035862
H            3.56654087521359       -1.63682977417947        0.04233139674524
H           -1.67107945562430        3.09322822573871       -0.02552706696334
H           -2.82428927394145        2.09428605349656       -0.95318074103337
H           -2.87644002486466        2.07745706351925        0.81450059976605
H           -1.17061985538665       -3.19584861009707        0.83242224714061
H           -1.14560246782873       -3.17511580834413       -0.95688266944647
H           -2.55549768731684       -2.55659960601237       -0.07459039105944
H            1.38130842369251       -2.94313824728853       -0.01389874052104
25
 energy: -0.548048567692 xtb: 6.6.1 (8d0f1dd)
C            3.27343088249682        1.15692010405823        0.09351717404260
N            2.32427653899776        0.08716316202405        0.04343843712057
C            2.60907851394332       -1.24111384330241        0.02723306425242
N            1.43508176809419       -1.94268415734203       -0.00292450879445
C            0.40824376006458       -1.05252993135800       -0.00394661359097
C            0.94543695158904        0.22433331588895        0.02425928355829
C            0.11553195709930        1.40287304311944        0.00547463613248
O            0.52459491209106        2.56400043075750        0.01872512453638
N           -1.25621819845960        1.06754747273285       -0.04650994092449
C           -2.25260119955496        2.14949866172097       -0.08871915968056
C           -1.81030204019867       -0.18784073774480       -0.04211154323171
O           -3.00589028557159       -0.37121551909379       -0.06308405920222
N           -0.92254779845432       -1.29030883995175       -0.03033640623757
C           -1.46299345562044       -2.63125255239548       -0.05758584569252
H            3.74460151149723        1.20145252523856        1.07879801699831
H            4.04696339426223        1.00775175176532       -0.66160604994990
H            2.74089302414082        2.08707644503347       -0.09159302497087
H            3.58524661989538       -1.67139518053239        0.03084953959258
H           -1.68906801771053        3.08775761409768       -0.04140022808825
H           -3.05281313739127        2.10641938269763       -0.89570506441813
H           -2.91027492384722        2.06531516470986        0.74930505409102
H           -1.16137421133397       -3.18547618759684        0.83315714610043
H           -1.13479750238784       -3.15945220519438       -0.95498376018256
H           -2.54802884824769       -2.53951104287947       -0.07289290342086
H            1.36574408957887       -2.94630008770912       -0.02432445584543
25
 energy: 14.087012474469 xtb: 6.6.1 (8d0f1dd)
C            3.32578823036780        1.13190244278176        0.10632261410666
N            2.35074255774757        0.09246435584304        0.04856742204092
C            2.63194497258357       -1.26595881988836        0.02181231000322
N            1.43052096666167       -1.94298725128202       -0.00971635960010
C            0.42752169410210       -1.04080658235836        0.00048835182185
C            0.95654463317826        0.24046330771879        0.03504473126007
C            0.13600772705264        1.40472960213988        0.01530035437759
O            0.54668366325806        2.57594347197362        0.05956378708907
N           -1.27160410930091        1.08557065925554       -0.08335430180882
C           -2.30879040138659        2.14684306711684       -0.13469246977776
C           -1.79646145826238       -0.16827255191669       -0.04459256784486
O           -2.99652586235564       -0.36356367376233       -0.04832915855119
N           -0.91495935367431       -1.26899352548407       -0.02084696547090
C           -1.45021332881873       -2.60787727403000       -0.05189757577453
H            3.79180399690054        1.17631178346856        1.09655039517463
H            4.10807121659084        0.96010585598120       -0.63871566461432
H            2.81548664157602        2.07054905241947       -0.09334348517303
H            3.59874992862976       -1.70634016432636        0.01029283289740
H           -1.73490087381847        3.08365952136901       -0.08324192376739
H           -3.32556243301399        2.10455948871907       -0.82673621041009
H           -2.95887418994776        2.04315581983898        0.69350796921830
H           -1.14769446478069       -3.16836747976588        0.83606814604497
H           -1.11876950185445       -3.13444901280320       -0.95081349727483
H           -2.53476936245943       -2.51537517037678       -0.06877858314565
H            1.35147341599698       -2.94423813388769       -0.04142623862660
25
 energy: 25.496247998430 xtb: 6.6.1 (8d0f1dd)
C            3.37252181074582        1.10342548038870        0.11634770004979
N            2.36738005089686        0.09079515429039        0.05102945621442
C            2.63887016435932       -1.27633216898641        0.01541903649592
N            1.42985030886095       -1.93790222398547       -0.01852072301047
C            0.43848302147398       -1.02892446320150        0.00251384350558
C            0.96548464053955        0.25485553399909        0.04312775429863
C            0.14286504943630        1.41804205830070        0.02460967473631
O            0.55241237178950        2.58683274467463        0.09420523194146
N           -1.28850411408009        1.10637011056582       -0.11206034150009
C           -2.37048769029719        2.14431006426838       -0.16585087583445
C           -1.78910250660496       -0.15414175152770       -0.04282094770860
O           -2.98858166501816       -0.36284471676486       -0.02987165955014
N           -0.90594268019191       -1.24973003332937       -0.01158222534057
C           -1.43756583860758       -2.58823995219931       -0.04539875458454
H            3.83186939697069        1.14401185825400        1.11107439696880
H            4.16353754305061        0.90480773489373       -0.61543942741892
H            2.89623952979815        2.05774310470632       -0.09760311349669
H            3.60223013176254       -1.72631661149086       -0.01318131532158
H           -1.80875673344379        3.08761389588226       -0.11715953774465
H           -3.48616270068274        2.09592345708145       -0.80815720687367
H           -3.00032356282695        2.01455451420082        0.67323721468110
H           -1.13310030194372       -3.15036891838049        0.84076391753416
H           -1.10471440168904       -3.11039654338142       -0.94658716276279
H           -2.52210171303857       -2.49556405641302       -0.06132541944026
H            1.34581419371290       -2.93949548310188       -0.05973560364419
25
 energy: 29.275193896281 xtb: 6.6.1 (8d0f1dd)
C            3.39017173092267        1.08980366878824        0.12023656592268
N            2.37197149075179        0.08916032367167        0.04995310935074
C            2.63758118330524       -1.27504815384752        0.01382973389773
N            1.43151850022553       -1.93364397320171       -0.02284040448362
C            0.44095344191319       -1.02394618040125        0.00112153052239
C            0.96883510153227        0.26025306387484        0.04395918769133
C            0.14547347121898        1.42602720169544        0.02600221813611
O            0.55293874363576        2.58912787360473        0.10856802925752
N           -1.29528170820285        1.11426294958107       -0.12614150944440
C           -2.39485749366622        2.14474935536160       -0.17507087637431
C           -1.78784908574028       -0.14994004799697       -0.04128121117476
O           -2.98554536407005       -0.36456136832240       -0.01701959048367
N           -0.90183147905516       -1.24217055813710       -0.00783873008258
C           -1.43201654345988       -2.58179533142563       -0.04203384864090
H            3.84253712951461        1.12902727253182        1.11834067094836
H            4.18433071393209        0.87590181865017       -0.60345500033529
H            2.93317243342846        2.05123661512587       -0.10241149887309
H            3.60071214613559       -1.72751479417905       -0.02453687322631
H           -1.84266918791055        3.09203634950655       -0.12216397361961
H           -3.53668921846270        2.09964400414251       -0.81139182296035
H           -3.01664658700743        1.99755882026509        0.66476189834971
H           -1.12599658484079       -3.14313890511564        0.84360724587295
H           -1.09892941817576       -3.10164759001579       -0.94411738155196
H           -2.51675838732699       -2.49064863457723       -0.05670643011435
H            1.34708927637492       -2.93570499083527       -0.06633712638968
25
 energy: 29.689553459786 xtb: 6.6.1 (8d0f1dd)
C            3.39201007035134        1.08706014400825        0.12045845077745
N            2.37226130842005        0.08836812525139        0.04808115620753
C            2.63566210746700       -1.27235394881751        0.01513785720955
N            1.43268866986971       -1.93219749356045       -0.02350114456498
C            0.44035900826530       -1.02338026745502       -0.00080350178544
C            0.96945930660306        0.26069141155721        0.04237813052136
C            0.14773576162525        1.42839436864319        0.02452665984245
O            0.55331887213077        2.58866464129039        0.11409368962763
N           -1.29599601976948        1.11478787825013       -0.13175996005442
C           -2.39730384066274        2.14567681760797       -0.17450979677379
C           -1.78850284385744       -0.14946108689460       -0.04111681404437
O           -2.98504693873741       -0.36479536211400       -0.01185978434388
N           -0.90132503258031       -1.24090094308902       -0.00738559567244
C           -1.43135074069870       -2.58140550626274       -0.04107674993090
H            3.84076272308920        1.12769169482907        1.11993993743299
H            4.18657026598320        0.86928897502989       -0.60015450779705
H            2.93986400677483        2.04895152743692       -0.10534980425846
H            3.59928598085075       -1.72466608240178       -0.02788984912356
H           -1.84674805834045        3.09291083221490       -0.11788786117552
H           -3.54111533305434        2.10500617435452       -0.81698438666464
H           -3.01972496678806        1.98918932446927        0.66197849920545
H           -1.12483626936373       -3.14188992002152        0.84472215756986
H           -1.09815804725869       -3.10094130248474       -0.94306820257110
H           -2.51617048394216       -2.49116123476490       -0.05527703024496
H            1.34851479859556       -2.93449997833282       -0.06565763719417
25
 energy: 29.862083154834 xtb: 6.6.1 (8d0f1dd)
C            3.39138786539051        1.08666690903162        0.11984498669174
N            2.37240574878793        0.08770681365408        0.04566301969729
C            2.63411350798137       -1.27023538235101        0.01801128934751
N            1.43357494223529       -1.93167119901366       -0.02346219189282
C            0.43943921590197       -1.02369753563817       -0.00279160620884
C            0.96970895723275        0.26041940760417        0.04057275139045
C            0.15101856752867        1.42975538139582        0.02312344245594
O            0.55386930018950        2.58853954591330        0.11919941495647
N           -1.29563310933280        1.11395896067146       -0.13641168907842
C           -2.39541788851461        2.14671692274798       -0.17228670623507
C           -1.78934721198254       -0.14921752294516       -0.04052517312324
O           -2.98499494637880       -0.36451545849172       -0.00755817779120
N           -0.90152242027836       -1.24066010197503       -0.00713192379620
C           -1.43169680723326       -2.58181033669248       -0.04051168413785
H            3.83741101637053        1.12911987541257        1.12032857435524
H            4.18656114063027        0.86731553205195       -0.59840216319791
H            2.94087655640485        2.04805585414659       -0.10804548480806
H            3.59811513968908       -1.72241408030981       -0.03107208867994
H           -1.84516553967500        3.09323589680151       -0.11150109001846
H           -3.53978826595422        2.11028812513251       -0.82368965251432
H           -3.02188846338247        1.98060940442836        0.65847864236574
H           -1.12507713508790       -3.14171936772338        0.84553191227244
H           -1.09834132262923       -3.10134782135715       -0.94229603841338
H           -2.51650490790241       -2.49192154883668       -0.05452214470556
H            1.34911036498131       -2.93414948491370       -0.06351230673693
25
 energy: 30.137861115954 xtb: 6.6.1 (8d0f1dd)
C            3.39069373176366        1.08730492894868        0.11946191313885
N            2.37281858055155        0.08739308570971        0.04441564303366
C            2.63403595504949       -1.27023038572847        0.02082818771183
N            1.43380880986405       -1.93191421342613       -0.02314139010095
C            0.43926532036947       -1.02408616150122       -0.00352541798449
C            0.96983314138828        0.26021750620472        0.03982971367537
C            0.15315586863103        1.42987592261569        0.02259563144730
O            0.55410123192971        2.58887659134739        0.12039426402314
N           -1.29523999992804        1.11334387757733       -0.13802296114158
C           -2.39315415308702        2.14714266201210       -0.17080984870163
C           -1.78951251587459       -0.14893690633719       -0.03996171141270
O           -2.98501377715928       -0.36429537615118       -0.00590438692403
N           -0.90164488450749       -1.24083785122403       -0.00695570981686
C           -1.43207924850327       -2.58200247935396       -0.04043393334828
H            3.83618339782726        1.13032278039732        1.12015974397922
H            4.18635341878981        0.86850465524665       -0.59831609537008
H            2.93923738728677        2.04821143677195       -0.10861081169663
H            3.59787843232422       -1.72257658198637       -0.03310002833462
H           -1.84287203705035        3.09324813700794       -0.10798835911029
H           -3.54008461100457        2.11252848675676       -0.82686353304228
H           -3.02301354860615        1.97685623826663        0.65619724989752
H           -1.12573882002195       -3.14198493341832        0.84569797663801
H           -1.09863206842451       -3.10164003980213       -0.94212738250859
H           -2.51684644500809       -2.49190156167367       -0.05459451655741
H            1.34868113837242       -2.93439102951617       -0.06219032529987
25
 energy: 30.757704888311 xtb: 6.6.1 (8d0f1dd)
C            3.39008545590739        1.08817828388564        0.11926681798303
N            2.37359591623004        0.08693712514630        0.04333598850386
C            2.63460570788956       -1.27121016968462        0.02561447883017
N            1.43395997081992       -1.93242293447173       -0.02253479574497
C            0.43947552803026       -1.02453225196441       -0.00398372416196
C            0.97012787249485        0.26002267048124        0.03930147556072
C            0.15565007587636        1.42963465619589        0.02219718443834
O            0.55437265186610        2.58949788118434        0.11973344616893
N           -1.29479041519825        1.11292134459482       -0.13861825722905
C           -2.39020634924041        2.14744174208597       -0.16907665344566
C           -1.78929785922714       -0.14843514110362       -0.03925270045915
O           -2.98485934992169       -0.36411983860727       -0.00488539516115
N           -0.90154264397128       -1.24114502992461       -0.00680983306544
C           -1.43242055938593       -2.58203051804725       -0.04055425066681
H            3.83585501241213        1.13120369952337        1.11985672934782
H            4.18612661591352        0.87104524553570       -0.59889250845796
H            2.93652862685575        2.04852995726662       -0.10814020746982
H            3.59792181887532       -1.72377717182904       -0.03624293901591
H           -1.84021652322080        3.09336228973647       -0.10468013778508
H           -3.54350688446022        2.11445314797895       -0.82980357706794
H           -3.02435465575459        1.97397090301138        0.65359776337190
H           -1.12661812316551       -3.14234691560384        0.84563025714283
H           -1.09894154598354       -3.10186130295710       -0.94217167177140
H           -2.51714356587493       -2.49147221534396       -0.05500526045123
H            1.34780752720556       -2.93481666834521       -0.06084831719950
25
 energy: 31.383044339044 xtb: 6.6.1 (8d0f1dd)
C            3.39002692335532        1.08843535034335        0.11942367779775
N            2.37411723698520        0.08656293919232        0.04320044795600
C            2.63524788863033       -1.27223705332435        0.02979563835152
N            1.43402964435803       -1.93271093464606       -0.02205815269714
C            0.43984971838405       -1.02470713099091       -0.00404463159171
C            0.97048078398942        0.25991404630407        0.03924470686921
C            0.15683992341131        1.42935443883333        0.02215236391156
O            0.55473646826620        2.58985809250358        0.11807287154131
N           -1.29455170053541        1.11308215976250       -0.13763663859592
C           -2.38854406737303        2.14746210531599       -0.16807979701269
C           -1.78889101397768       -0.14810438539021       -0.03900552652460
O           -2.98456948662619       -0.36412462400309       -0.00517683978895
N           -0.90123772066670       -1.24132942335462       -0.00693313600081
C           -1.43242817486181       -2.58191564651226       -0.04075332636219
H            3.83648854336318        1.13100463174076        1.11970469627976
H            4.18600043724617        0.87260618650148       -0.59956941308357
H            2.93512992820800        2.04859539505062       -0.10717010593259
H            3.59808584406768       -1.72467056893042       -0.03913305801802
H           -1.83911429708077        3.09361612342134       -0.10377095545022
H           -3.54849594592154        2.11502084931833       -0.83097244303244
H           -3.02521390401383        1.97380064679605        0.65230601466440
H           -1.12694304110084       -3.14245717151126        0.84544388796075
H           -1.09904820489144       -3.10192047442737       -0.94234332630281
H           -2.51714577643313       -2.49107137144752       -0.05533208753269
H            1.34736429818993       -2.93503539180164       -0.06033095521134
25
 energy: 32.078040370453 xtb: 6.6.1 (8d0f1dd)
C            3.39020058521349        1.08827951887984        0.11973654688221
N            2.37439396263156        0.08621102812269        0.04364075497678
C            2.63578086220584       -1.27307386956066        0.03441204044685
N            1.43411355511008       -1.93283802669627       -0.02167900293159
C            0.44022497229696       -1.02474904952047       -0.00410800150817
C            0.97092751649306        0.25977000759220        0.03932384924533
C            0.15729855327137        1.42911556886476        0.02228280576739
O            0.55542129453000        2.58992959865782        0.11636448561901
N           -1.29428166516836        1.11355991781332       -0.13557351983069
C           -2.38728746723018        2.14737152389961       -0.16727821447485
C           -1.78843283677250       -0.14795826369061       -0.03904803314849
O           -2.98420448019721       -0.36415312809073       -0.00620774113238
N           -0.90084327021885       -1.24144297754185       -0.00734809740509
C           -1.43226610910579       -2.58179724401834       -0.04097950531220
H            3.83737877976259        1.13034688919978        1.11965635862807
H            4.18586861797788        0.87325209206336       -0.60013875318763
H            2.93466697770911        2.04843273249300       -0.10623045361240
H            3.59821157369935       -1.72493532852781       -0.04268937830375
H           -1.83861259383487        3.09401006693695       -0.10404602210783
H           -3.55477556500116        2.11502274693441       -0.83165466966963
H           -3.02597933218940        1.97500292717388        0.65154214382219
H           -1.12686817662751       -3.14238435940003        0.84523532508863
H           -1.09909586915810       -3.10199069645079       -0.94254977099063
H           -2.51699939324652       -2.49081672235408       -0.05551157120582
H            1.34737381282165       -2.93513616403598       -0.06011766346075
25
 energy: 32.568755584297 xtb: 6.6.1 (8d0f1dd)
C            3.39036665498245        1.08796532063071        0.11993880221211
N            2.37434150527702        0.08605286559937        0.04426997734115
C            2.63593661709056       -1.27331130337203        0.03789750250195
N            1.43418947519474       -1.93284126054968       -0.02158793691099
C            0.44038628614664       -1.02472102570006       -0.00434074254781
C            0.97126518781846        0.25960358930677        0.03935006081532
C            0.15705774233714        1.42901526227260        0.02249246215474
O            0.55619206743833        2.58963521063186        0.11582893851689
N           -1.29394385253266        1.11396481300525       -0.13370213859195
C           -2.38651844417465        2.14730510270210       -0.16681744926801
C           -1.78816422175081       -0.14807192295787       -0.03920621183813
O           -2.98396116415541       -0.36406298300502       -0.00714337324444
N           -0.90060937940281       -1.24145399652678       -0.00783047290560
C           -1.43210711462012       -2.58178357490670       -0.04111231894235
H            3.83778931961198        1.12995719757802        1.11969104207750
H            4.18577995673194        0.87284363709031       -0.60024059640483
H            2.93502797208153        2.04817571248456       -0.10602243738027
H            3.59817914972747       -1.72442697116141       -0.04574242886651
H           -1.83836555179589        3.09432822537351       -0.10466563569070
H           -3.55935550793240        2.11487099876772       -0.83213703484264
H           -3.02650668112910        1.97630718916953        0.65113253219018
H           -1.12655490836969       -3.14222226419044        0.84512876619798
H           -1.09912630378953       -3.10209381542120       -0.94266556531878
H           -2.51685535376311       -2.49083467377429       -0.05547919170631
H            1.34777085395039       -2.93517254430283       -0.06000263735388
25
 energy: 32.927105041089 xtb: 6.6.1 (8d0f1dd)
C            3.39043340644575        1.08767166545965        0.11997220018273
N            2.37407432094756        0.08608601716763        0.04493445559843
C            2.63582321197519       -1.27311379464618        0.04082405224005
N            1.43424944580528       -1.93284488587486       -0.02177745222448
C            0.44039196299278       -1.02468513754913       -0.00483804537211
C            0.97150230686314        0.25938458159415        0.03921791753894
C            0.15632996020510        1.42900625296282        0.02271363413049
O            0.55704539903865        2.58903221646509        0.11646959813282
N           -1.29339783025029        1.11419066373379       -0.13241421389595
C           -2.38586403809706        2.14733530929412       -0.16650439494716
C           -1.78801887506319       -0.14839635010047       -0.03934756291258
O           -2.98382520498974       -0.36373203698956       -0.00765901470399
N           -0.90054866515571       -1.24137401790017       -0.00830522001774
C           -1.43201741503860       -2.58186134617312       -0.04116075548373
H            3.83763918591587        1.13008965651642        1.11976902386300
H            4.18572624085049        0.87173889686282       -0.59990622646472
H            2.93578960995255        2.04790123203140       -0.10655108732227
H            3.59798755078317       -1.72339551868031       -0.04863511583166
H           -1.83798226623432        3.09454898070945       -0.10500736173199
H           -3.56252494652158        2.11492743411423       -0.83278395592197
H           -3.02689668208999        1.97705713113101        0.65062222666346
H           -1.12617332355048       -3.14202240317297        0.84511833263422
H           -1.09915188652936       -3.10222284076682       -0.94268370580550
H           -2.51676971641335       -2.49104448583572       -0.05532478149259
H            1.34839255313059       -2.93524843160924       -0.05970863466112
