25
 energy: 0.000000000000 xtb: 6.6.1 (8d0f1dd)
C            3.23720163006194        1.16630919979326        0.08434469647475
N            2.29877817382611        0.07527477071623        0.03981603040599
C            2.58028210190900       -1.21425402444508        0.03006176031096
N            1.43813958087363       -1.93419271955128        0.00098261760884
C            0.39035688448383       -1.05887472636071       -0.00790371836672
C            0.93510056364412        0.21347819449412        0.01709077491437
C            0.09450143893243        1.40504303904423       -0.00410947031874
O            0.49712751527797        2.54126714362870       -0.00342325688240
N           -1.25076640035757        1.06271879480407       -0.03085478223738
C           -2.21907211982101        2.15522099834493       -0.05001256985998
C           -1.81739487048744       -0.20012725993278       -0.04692818574614
O           -2.99983886758376       -0.37846417018721       -0.07008878229737
N           -0.92618586207120       -1.30210215599479       -0.03682761578324
C           -1.46982264913417       -2.64643102187190       -0.06029820460571
H            3.71247264356769        1.21471455160235        1.06488849150277
H            4.00791497605742        1.03430808813993       -0.67357694370751
H            2.69910007168542        2.09770118228144       -0.09130154882931
H            3.56654120610678       -1.63682992603973        0.04233140067262
H           -1.67107961066214        3.09322851271934       -0.02552706933167
H           -2.82428953597071        2.09428624779827       -0.95318082946668
H           -2.87644029173232        2.07745725625962        0.81450067533302
H           -1.17061996399332       -3.19584890659852        0.83242232437030
H           -1.14560257411436       -3.17511610292205       -0.95688275822323
H           -2.55549792440841       -2.55659984320617       -0.07459039797972
H            1.38130855184625       -2.94313852034425       -0.01389874181052
25
 energy: -1.841489098319 xtb: 6.6.1 (8d0f1dd)
C            3.27131788817563        1.15885481167390        0.09316888725649
N            2.32284906375873        0.08827081207186        0.04294784478392
C            2.60814548044822       -1.24036606895610        0.02754112692276
N            1.43394375516001       -1.94216334223468       -0.00263456014506
C            0.40692941012177       -1.05232621620542       -0.00452590773011
C            0.94381093981712        0.22476377716016        0.02300577734206
C            0.11330110531386        1.40257329704059        0.00349525210544
O            0.52073717271508        2.56442362633473        0.01594257464205
N           -1.25756418989274        1.06584254282242       -0.04589538015565
C           -2.25102671932359        2.14846534621162       -0.08376898595458
C           -1.81233566607560       -0.18914908261429       -0.04324949335244
O           -3.00805645011740       -0.37288599483976       -0.06409523809179
N           -0.92389175992235       -1.29094156769249       -0.03112223665717
C           -1.46375235020500       -2.63202675594781       -0.05774504212249
H            3.74339103160269        1.20324178625530        1.07813652428591
H            4.04434653450242        1.01070538903479       -0.66271107867434
H            2.73780679203878        2.08870644653858       -0.09104511635275
H            3.58446879500414       -1.67093189471336        0.03189451377881
H           -1.68916511112820        3.08636221387065       -0.04219755695474
H           -3.02507204266735        2.10360819590164       -0.90249836608655
H           -2.90632013331565        2.06631647180480        0.76065344587417
H           -1.16175098274275       -3.18586315639769        0.83313240632466
H           -1.13533931220268       -3.16040335780657       -0.95495649698239
H           -2.54881016746778       -2.54025750522711       -0.07296051371607
H            1.36425158433885       -2.94579117191376       -0.02347848419284
25
 energy: 8.281994278301 xtb: 6.6.1 (8d0f1dd)
C            3.32141152967431        1.13605444053727        0.10597722031260
N            2.34728386988455        0.09516569799271        0.04746228746260
C            2.62915020384376       -1.26369148163498        0.02273619682857
N            1.42752933753583       -1.94119100741240       -0.00910521482390
C            0.42416499742763       -1.03969708614755       -0.00123874815599
C            0.95294572245838        0.24177606771657        0.03156436541150
C            0.13035243440229        1.40399196070631        0.01027507098191
O            0.53601899624492        2.57705025613532        0.05210910158698
N           -1.27411781692819        1.08094701777205       -0.08161603035199
C           -2.30438404916694        2.14357009457918       -0.12281227456141
C           -1.80133389427054       -0.17163780830574       -0.04724207679754
O           -3.00138115417004       -0.36785495829658       -0.05166239062358
N           -0.91797794702992       -1.27031724939114       -0.02317903371663
C           -1.45173560471967       -2.60956248986589       -0.05238294909637
H            3.78956339960278        1.17937978967883        1.09541243534056
H            4.10274008198216        0.96627417702973       -0.64053048991943
H            2.80996190301913        2.07460183609600       -0.09140503826680
H            3.59599865177564       -1.70498897433234        0.01279337600009
H           -1.73640108600309        3.08148158873077       -0.08698285452644
H           -3.26372707233936        2.09580280595035       -0.83990330231441
H           -2.94662574427509        2.04665677417350        0.72000835491074
H           -1.14829730371133       -3.16875343759399        0.83609660199150
H           -1.11981520968744       -3.13661929149238       -0.95076178908444
H           -2.53634131871494       -2.51703425014208       -0.06896640840196
H            1.34723174110138       -2.94237587031151       -0.03961251403886
25
 energy: 14.844019253492 xtb: 6.6.1 (8d0f1dd)
C            3.36285654523165        1.11115302733033        0.11541192225925
N            2.36046781787781        0.09532961086276        0.04915612834612
C            2.63348331084662       -1.27150094120421        0.01693723622074
N            1.42514088815702       -1.93498298821858       -0.01738280465117
C            0.43235424133636       -1.02763027811598       -0.00046559655854
C            0.95915279617778        0.25628239030965        0.03765674924300
C            0.13335648998401        1.41637551628078        0.01755479797213
O            0.53471472819259        2.58816956875774        0.08095087341481
N           -1.29099579261849        1.09805906433314       -0.10701776776899
C           -2.35831207067294        2.13927910083222       -0.14660804804781
C           -1.79694039256139       -0.16027855907638       -0.04660664216097
O           -2.99613850819346       -0.36946596874350       -0.03669201719631
N           -0.91118929353226       -1.25307096937875       -0.01601470201597
C           -1.44039859659689       -2.59240464774810       -0.04672507111767
H            3.82547549203842        1.14929668627791        1.10880006616199
H            4.15209004597990        0.91672641975468       -0.61916277535284
H            2.88391934348880        2.06507736186725       -0.09396972054446
H            3.59698062562776       -1.72178579590956       -0.00855877133801
H           -1.80458893003976        3.08447439449280       -0.12333273269165
H           -3.38376225394125        2.07905917861914       -0.82299733697656
H           -2.97862606629929        2.02531536116909        0.71104889136872
H           -1.13451175879511       -3.15211244687122        0.84047681107311
H           -1.10710656614351       -3.11565918587152       -0.94695656444821
H           -2.52505293497320       -2.50025067853188       -0.06205998122815
H            1.33984550736505       -2.93642661904577       -0.05640904781525
25
 energy: 15.908467025898 xtb: 6.6.1 (8d0f1dd)
C            3.38096644764654        1.09747569581856        0.11953759868387
N            2.36366850269037        0.09515213121312        0.04788345106217
C            2.63082695501349       -1.26903076314814        0.01445201045123
N            1.42539393138972       -1.92934975124809       -0.02259833704439
C            0.43357484511180       -1.02118205454514       -0.00217947197422
C            0.96091145531073        0.26337189154854        0.03877419876724
C            0.13237616180128        1.42522397115208        0.02037333045722
O            0.52952884053772        2.59245942522344        0.09548562053097
N           -1.29981685730477        1.10536334593463       -0.11934225064778
C           -2.38378628799335        2.13746412998127       -0.15448119727095
C           -1.79753169798735       -0.15689037115259       -0.04481575159635
O           -2.99479988797692       -0.37273286016015       -0.02481566732056
N           -0.90810306282608       -1.24534915751894       -0.01264700658698
C           -1.43459122186848       -2.58614209285092       -0.04326961411977
H            3.83709804946517        1.13224104519754        1.11623193101341
H            4.17348444918309        0.88654764973924       -0.60699078480905
H            2.92352104921325        2.06003123785306       -0.09794665986384
H            3.59401115414580       -1.72206412200041       -0.02179494369964
H           -1.84174124128772        3.08784940589813       -0.13415926337338
H           -3.41180669839291        2.07318784042476       -0.82649980678158
H           -2.99349754593317        2.01409677824317        0.70843288988042
H           -1.12632421207800       -3.14450962657517        0.84348560697183
H           -1.10107187297965       -3.10689423948692       -0.94449567205528
H           -2.51950675178942       -2.49605573070128       -0.05687117295829
H            1.33943016484508       -2.93123517666776       -0.06471514156904
25
 energy: 15.182288441366 xtb: 6.6.1 (8d0f1dd)
C            3.38478598264440        1.09315132844482        0.12068956883151
N            2.36321107456635        0.09560171921780        0.04577546092720
C            2.62792681632457       -1.26506744729451        0.01514895938019
N            1.42579423783252       -1.92641039518048       -0.02450062523382
C            0.43237745750638       -1.01906952405108       -0.00474706805106
C            0.96048999458657        0.26559022099335        0.03716251753356
C            0.13212424953126        1.42867903123262        0.01935504262561
O            0.52586923447839        2.59346067475302        0.10261931437412
N           -1.30277609411510        1.10607278913596       -0.12603970477760
C           -2.38957751909672        2.13692084269061       -0.15537779602145
C           -1.79938274198860       -0.15671813083499       -0.04445516526825
O           -2.99533779298548       -0.37436123758646       -0.01836134771041
N           -0.90799950359161       -1.24338955160806       -0.01224355944722
C           -1.43304795221380       -2.58551046478760       -0.04192262476666
H            3.83600191510508        1.12796114342455        1.11948717468102
H            4.17830552018625        0.87503841549472       -0.60145500163528
H            2.93626270922198        2.05780485785148       -0.10129731191303
H            3.59154792901125       -1.71783801986975       -0.02779116045031
H           -1.85083408345530        3.08849161746408       -0.13484943903062
H           -3.40733243162476        2.07293122298101       -0.83029886624833
H           -2.99554051439946        2.00954681938301        0.70900699985383
H           -1.12332361396151       -3.14255298061677        0.84491563295806
H           -1.09938326389234       -3.10557224283006       -0.94323416694301
H           -2.51812433601746       -2.49723910608107       -0.05452572331436
H            1.34017739428339       -2.92849298015419       -0.06602721420639
25
 energy: 14.597362163309 xtb: 6.6.1 (8d0f1dd)
C            3.38461359994962        1.09246625776045        0.12100652605567
N            2.36249885096209        0.09625920623057        0.04373073408241
C            2.62635008088702       -1.26274515213723        0.01752816615504
N            1.42584567667189       -1.92530773562788       -0.02497609644168
C            0.43127197880500       -1.01865581528709       -0.00698810858843
C            0.95966298266387        0.26624598043467        0.03536631648136
C            0.13287867832979        1.42965893276336        0.01797336107427
O            0.52355416352194        2.59393398466553        0.10714185656492
N           -1.30371482259997        1.10495506868800       -0.13111013621119
C           -2.38922461177281        2.13677406347924       -0.15566245444685
C           -1.80076252340756       -0.15700671895765       -0.04440881862884
O           -2.99608157037197       -0.37500171633618       -0.01458106314080
N           -0.90867347210376       -1.24324647789298       -0.01262123659084
C           -1.43296823565948       -2.58608857853470       -0.04157423476239
H            3.83245747124898        1.12846563001577        1.12120789079133
H            4.17917351398476        0.87131793744642       -0.59820891467325
H            2.93945765784590        2.05730717016951       -0.10381162783140
H            3.59027001799066       -1.71484223131671       -0.03161463798019
H           -1.85032553164338        3.08820099660229       -0.13454793533313
H           -3.40142008318308        2.07349040797344       -0.83069755303169
H           -2.99313218595070        2.00755451908155        0.70991840003258
H           -1.12259406652943       -3.14237213960988        0.84546111441991
H           -1.09910774823457       -3.10614257323895       -0.94273460004896
H           -2.51808688540001       -2.49873180411620       -0.05377302849906
H            1.34027173193141       -2.92746061008334       -0.06499002330146
25
 energy: 14.349212755253 xtb: 6.6.1 (8d0f1dd)
C            3.38377054746280        1.09290221411152        0.12116791408666
N            2.36222707309158        0.09666640016312        0.04201973391815
C            2.62587465175647       -1.26206835594846        0.02108626636365
N            1.42581847833477       -1.92515406441492       -0.02483545060691
C            0.43076562642367       -1.01884384341043       -0.00855347050790
C            0.95908296805352        0.26637129231577        0.03404624184218
C            0.13402630103423        1.42967976615851        0.01716190962550
O            0.52203571901199        2.59424468405137        0.10965164489694
N           -1.30401771975851        1.10377053959319       -0.13487617828809
C           -2.38782234636330        2.13669976808393       -0.15634421113402
C           -1.80141421286398       -0.15714347788005       -0.04429359834371
O           -2.99651765790759       -0.37527411127838       -0.01203119000053
N           -0.90914881918627       -1.24357038454833       -0.01305557358667
C           -1.43323061019631       -2.58659937621637       -0.04167976120678
H            3.82953081063775        1.13011036405183        1.12225823462895
H            4.17948916007343        0.87085292571054       -0.59612500273919
H            2.93939365878883        2.05747927650164       -0.10533758362197
H            3.58980940088866       -1.71367720761572       -0.03519472939342
H           -1.84798588335408        3.08773657991973       -0.13465830193502
H           -3.39888640625281        2.07401176593095       -0.82929543029640
H           -2.99014857703914        2.00705712864639        0.71046754207772
H           -1.12284271884511       -3.14266394629640        0.84551467150066
H           -1.09920731729163       -3.10681042348979       -0.94269139703756
H           -2.51834059719092       -2.49942249433851       -0.05387787630513
H            1.33995313862817       -2.92732641762912       -0.06349050778981
25
 energy: 14.266593929255 xtb: 6.6.1 (8d0f1dd)
C            3.38293197723633        1.09362350773454        0.12137402206182
N            2.36233724810105        0.09670229052077        0.04061354357499
C            2.62603216993644       -1.26242903649365        0.02634391766320
N            1.42584577555500       -1.92540753738494       -0.02431304700687
C            0.43069938972409       -1.01923494658227       -0.00965187597111
C            0.95885284751770        0.26625297763925        0.03304855407707
C            0.13527410058025        1.42939347489064        0.01665931808988
O            0.52096551652588        2.59447974852287        0.11057063161832
N           -1.30410479179694        1.10289131067072       -0.13751009092546
C           -2.38664105588142        2.13661765998133       -0.15721048466135
C           -1.80156905459136       -0.15709681597611       -0.04409784183163
O           -2.99662883860439       -0.37544470644809       -0.01008952008270
N           -0.90927040143380       -1.24399815531528       -0.01352265870727
C           -1.43353399308684       -2.58688284060207       -0.04204428960828
H            3.82754068209442        1.13172871388924        1.12295538744355
H            4.17969676642941        0.87196314640486       -0.59482762850548
H            2.93795849085534        2.05778062014250       -0.10594271699904
H            3.58970713996954       -1.71364738447491       -0.03971956607784
H           -1.84593398872180        3.08733705142620       -0.13523386940846
H           -3.39837944406713        2.07425550218463       -0.82732814831348
H           -2.98747749204004        2.00752011359366        0.71095356462543
H           -1.12354604110755       -3.14304656211668        0.84527834626623
H           -1.09940835635416       -3.10730770463937       -0.94292331682680
H           -2.51862327808643       -2.49944233327930       -0.05445624688096
H            1.33948929918267       -2.92757949211651       -0.06189208746642
25
 energy: 14.244213072063 xtb: 6.6.1 (8d0f1dd)
C            3.38202578014481        1.09457188978942        0.12186100637448
N            2.36287931727964        0.09623620421673        0.03920946541097
C            2.62677762515307       -1.26389129574512        0.03758981536345
N            1.42595773295743       -1.92595363267381       -0.02307478780587
C            0.43101335223144       -1.01979569987607       -0.01084823561714
C            0.95903538453477        0.26591132625413        0.03191173594917
C            0.13692834697359        1.42892169339115        0.01602066024824
O            0.52002425431289        2.59473345684849        0.11004958408760
N           -1.30414330688621        1.10224063636429       -0.13955595446652
C           -2.38582584741873        2.13649425108292       -0.15838695023836
C           -1.80133068265312       -0.15682283665637       -0.04384780825909
O           -2.99639261576368       -0.37571276735444       -0.00809044586027
N           -0.90895315253278       -1.24453864098420       -0.01441216778871
C           -1.43384095170785       -2.58696234853908       -0.04281015802282
H            3.82619032483484        1.13321169569426        1.12359307631492
H            4.17982302113924        0.87465864070034       -0.59399546784168
H            2.93509549631784        2.05809644225278       -0.10548460936398
H            3.58961732233466       -1.71439416606947       -0.04922767892030
H           -1.84434622645225        3.08700193215435       -0.13673372528845
H           -3.39917357380884        2.07397325781709       -0.82454494465814
H           -2.98462420351743        2.00919409869613        0.71173761195696
H           -1.12472151092286       -3.14344510976619        0.84469356909551
H           -1.09967826280795       -3.10777291251021       -0.94348971504461
H           -2.51890464578250       -2.49881685551313       -0.05562200679329
H            1.33878168997622       -2.92811065740198       -0.05950797268479
25
 energy: 14.235084401100 xtb: 6.6.1 (8d0f1dd)
C            3.38193671172588        1.09469851507889        0.12224163956178
N            2.36320283700592        0.09576466769337        0.03932145407420
C            2.62724055039854       -1.26483163060224        0.04591178757860
N            1.42599688533951       -1.92613283107034       -0.02225107422081
C            0.43128510704832       -1.01988083790362       -0.01133207771751
C            0.95944438843760        0.26572168014137        0.03154294750481
C            0.13726165583981        1.42881155427799        0.01565275896206
O            0.52012617614517        2.59472402762498        0.10876582096465
N           -1.30413136497692        1.10243329509902       -0.13897751548358
C           -2.38617866426097        2.13645962649782       -0.15858328793639
C           -1.80106991101664       -0.15666110869925       -0.04391609601416
O           -2.99611404884858       -0.37588013481813       -0.00808495523750
N           -0.90854426115185       -1.24461330663473       -0.01511434193097
C           -1.43378695122227       -2.58681810716652       -0.04322658820928
H            3.82678134298347        1.13290118796701        1.12362272474751
H            4.17963191742344        0.87590006653024       -0.59436592917817
H            2.93394883120350        2.05806530466962       -0.10440113653519
H            3.58921538397445       -1.71459527885181       -0.05650064519024
H           -1.84481572885907        3.08707659262103       -0.13774548703433
H           -3.39988016359025        2.07333449795195       -0.82383982072237
H           -2.98433699588309        2.01037688228170        0.71218152603365
H           -1.12497265035329       -3.14332515846742        0.84438744500743
H           -1.09971650328277       -3.10787239633706       -0.94378964296318
H           -2.51884861821732       -2.49834935885665       -0.05610624582299
H            1.33853874207366       -2.92827914685519       -0.05835936409070
25
 energy: 14.076855611342 xtb: 6.6.1 (8d0f1dd)
C            3.38182403773650        1.09465879949512        0.12381139309950
N            2.36392651593053        0.09424829357662        0.04092774230997
C            2.62864653166384       -1.26780788232184        0.08252216205486
N            1.42592610859211       -1.92648695425968       -0.01908866668561
C            0.43207253290987       -1.01983012426063       -0.01396168966357
C            0.96096540620860        0.26513062020166        0.02993719693321
C            0.13761743525097        1.42858190690828        0.01400686511101
O            0.52087432785962        2.59439567930634        0.10423566103579
N           -1.30401849663441        1.10332643932959       -0.13589892533479
C           -2.38762955670470        2.13641436527521       -0.15867623357731
C           -1.80033443259852       -0.15633232585505       -0.04477331152644
O           -2.99525120620152       -0.37650365686846       -0.00921836686965
N           -0.90710154622149       -1.24460845190336       -0.01845954284510
C           -1.43330136847255       -2.58635260642125       -0.04465604130531
H            3.82956418337924        1.13103729749104        1.12368970717909
H            4.17856272747484        0.87886163592480       -0.59585324507613
H            2.93110855717571        2.05773174813271       -0.10044766448394
H            3.58654102660126       -1.71357694235597       -0.08943766425833
H           -1.84693467572351        3.08747053096643       -0.14117082567917
H           -3.40150845735682        2.07084671809272       -0.82227021244608
H           -2.98411949264754        2.01435366410727        0.71376527310730
H           -1.12491434517881       -3.14230042587890        0.84348953885601
H           -1.09973335447459       -3.10848006880203       -0.94468897825595
H           -2.51836947966312       -2.49713655136602       -0.05733073380644
H            1.33780168903072       -2.92861310634261       -0.05341954172562
25
 energy: 14.113338507904 xtb: 6.6.1 (8d0f1dd)
C            3.38207446058992        1.09427532191809        0.12337181477634
N            2.36345614300928        0.09463341522647        0.04163745590762
C            2.62840484424936       -1.26695982214590        0.07563380631802
N            1.42581907860915       -1.92632887992786       -0.02014657388551
C            0.43195520498088       -1.01961968226262       -0.01362129761931
C            0.96081717483380        0.26516690917054        0.03030870372221
C            0.13649144274629        1.42864715207395        0.01446403303853
O            0.52137169807375        2.59399838542423        0.10456849602300
N           -1.30371856942507        1.10353067159033       -0.13478115272173
C           -2.38748081405106        2.13651470226567       -0.15783507143794
C           -1.80037019586383       -0.15662203029130       -0.04495218438627
O           -2.99537520782848       -0.37619735232855       -0.01051770196361
N           -0.90728245100300       -1.24435768350833       -0.01807607672660
C           -1.43315099080661       -2.58638656469382       -0.04422161895128
H            3.82999046669779        1.13059166212021        1.12321001932092
H            4.17831673939033        0.87727599972116       -0.59625092363125
H            2.93260966546442        2.05769638850781       -0.10109746069977
H            3.58567571535032       -1.71242062645327       -0.08281075461262
H           -1.84706090214402        3.08760097005824       -0.13972736254064
H           -3.40091460507467        2.07133195742517       -0.82375074098487
H           -2.98551129318757        2.01311376508998        0.71323148443892
H           -1.12414867028395       -3.14210102245369        0.84380754357241
H           -1.09969440002656       -3.10832808827971       -0.94437527395602
H           -2.51823037890382       -2.49756920256038       -0.05658624666502
H            1.33817051253953       -2.92845774351441       -0.05444902018823
25
 energy: 14.040659828348 xtb: 6.6.1 (8d0f1dd)
C            3.38231578534100        1.09369615417416        0.12344727730238
N            2.36281527037965        0.09498299384818        0.04318572836372
C            2.62827214850616       -1.26641537579210        0.08031186049622
N            1.42555720193016       -1.92607458938494       -0.02022856230677
C            0.43181890574587       -1.01923944326045       -0.01433046569804
C            0.96079831575380        0.26521219957706        0.03021561795038
C            0.13521002775739        1.42881474919784        0.01447187395533
O            0.52164049638672        2.59352356865461        0.10500901567903
N           -1.30343669542543        1.10377091026347       -0.13395139426364
C           -2.38747316117231        2.13660717755149       -0.15716117727050
C           -1.80045312134204       -0.15695805777517       -0.04553500697787
O           -2.99547092925710       -0.37599025253825       -0.01182107590149
N           -0.90730292805199       -1.24397287229381       -0.01866319514528
C           -1.43282014123679       -2.58639834258263       -0.04400846857564
H            3.83052025492882        1.13012126077985        1.12313178851225
H            4.17800072342395        0.87504508859346       -0.59617972003942
H            2.93443300572595        2.05746854784437       -0.10160955700174
H            3.58407714465010       -1.71029432922326       -0.08848373008566
H           -1.84744159917283        3.08777097611115       -0.13876946315245
H           -3.39994161593897        2.07153258181729       -0.82526669429974
H           -2.98671284676296        2.01202052713580        0.71277965288340
H           -1.12305657914641       -3.14145042040737        0.84411385127460
H           -1.09953886661746       -3.10846278239970       -0.94408615086404
H           -2.51791561271481       -2.49805398889985       -0.05591114548365
H            1.33831948424576       -2.92822767881921       -0.05362696320409
25
 energy: 13.914761408427 xtb: 6.6.1 (8d0f1dd)
C            3.38238543017081        1.09311715879158        0.12357749758336
N            2.36174992192028        0.09575427404920        0.04540689212008
C            2.62806549318736       -1.26558751281311        0.08825209481853
N            1.42520403832412       -1.92579750272564       -0.02019630319936
C            0.43155778912226       -1.01884591305319       -0.01556168848141
C            0.96046691858348        0.26530390915413        0.02994645259196
C            0.13363468318397        1.42903667482285        0.01440742455154
O            0.52133194492331        2.59301875490849        0.10687660109918
N           -1.30298100384808        1.10372035932180       -0.13485850219718
C           -2.38685933739826        2.13669797781232       -0.15670382964102
C           -1.80063583573360       -0.15744811417196       -0.04626311014926
O           -2.99570435305593       -0.37550845618206       -0.01245260928946
N           -0.90755001778003       -1.24352812986862       -0.01939493771256
C           -1.43256146125085       -2.58651754845405       -0.04370860036510
H            3.83003644601730        1.13091184440804        1.12348074627471
H            4.17789778035866        0.87136888520975       -0.59496239003381
H            2.93698050699187        2.05716021065376       -0.10357503280623
H            3.58249568692658       -1.70750670133275       -0.09895429231888
H           -1.84709686473868        3.08785234396481       -0.13688952553609
H           -3.39819663400041        2.07250835910600       -0.82719607786121
H           -2.98752890347656        2.00954812504582        0.71183726371126
H           -1.12187939849624       -3.14068432409893        0.84457655299154
H           -1.09938605037944       -3.10874798501211       -0.94364913650903
H           -2.51766988394495       -2.49879907647114       -0.05509287606901
H            1.33845777232924       -2.92799901089297       -0.05186871742522
