25
 energy: 0.000000000000 xtb: 6.6.1 (8d0f1dd)
C            3.23720132972391        1.16630909158653        0.08434468864950
N            2.29877796055224        0.07527476373246        0.03981602671198
C            2.58028186251803       -1.21425391179017        0.03006175752192
N            1.43813944744728       -1.93419254010258        0.00098261751768
C            0.39035684826767       -1.05887462812143       -0.00790371763344
C            0.93510047688824        0.21347817468824        0.01709077332874
C            0.09450143016486        1.40504290868848       -0.00410946993748
O            0.49712746915594        2.54126690785742       -0.00342325656480
N           -1.25076628431515        1.06271869620815       -0.03085477937476
C           -2.21907191394203        2.15522079838987       -0.05001256521996
C           -1.81739470187490       -0.20012724136556       -0.04692818139228
O           -2.99983858926755       -0.37846413507442       -0.07008877579474
N           -0.92618577614240       -1.30210203518959       -0.03682761236648
C           -1.46982251276835       -2.64643077634382       -0.06029819901142
H            3.71247229913541        1.21471443890471        1.06488839270555
H            4.00791460421487        1.03430799217987       -0.67357688121503
H            2.69909982127087        2.09770098766290       -0.09130154035862
H            3.56654087521359       -1.63682977417947        0.04233139674524
H           -1.67107945562430        3.09322822573871       -0.02552706696334
H           -2.82428927394145        2.09428605349656       -0.95318074103337
H           -2.87644002486466        2.07745706351925        0.81450059976605
H           -1.17061985538665       -3.19584861009707        0.83242224714061
H           -1.14560246782873       -3.17511580834413       -0.95688266944647
H           -2.55549768731684       -2.55659960601237       -0.07459039105944
H            1.38130842369251       -2.94313824728853       -0.01389874052104
25
 energy: -6.231784391485 xtb: 6.6.1 (8d0f1dd)
C            3.25405609386514        1.16669723718494        0.08918496033829
N            2.30932426855652        0.10145847066850        0.03623555896764
C            2.60378196556085       -1.24144398685652        0.03181732567966
N            1.42196004240187       -1.93889775630300       -0.00014124158179
C            0.40264263540128       -1.05826737415766       -0.00718710897519
C            0.92373570151835        0.22814791160534        0.01807493223216
C            0.11761070617233        1.38939665484175       -0.00273912348295
O            0.50006458164449        2.56267834460248        0.00291002553780
N           -1.26975097453387        1.05604679411297       -0.04397105057700
C           -2.23229360317011        2.14824145102894       -0.06181788065876
C           -1.81397333607490       -0.19175465534805       -0.04668185283796
O           -3.01301875097055       -0.38025914078745       -0.06621927200245
N           -0.93559756026825       -1.29520698101021       -0.03441638029696
C           -1.46865529588229       -2.63675925126724       -0.05939457376892
H            3.72869846613047        1.21287287892512        1.07343557415044
H            4.02756516329301        1.02437951029938       -0.66849208702615
H            2.71930945547608        2.09632754404513       -0.09213058200779
H            3.57977322824805       -1.65528460143183        0.03960753236151
H           -1.67777263491407        3.08349328125858       -0.04003397731234
H           -2.87395600342687        2.09580853879672       -0.94292263189641
H           -2.88415191798246        2.07434373153217        0.80593671126552
H           -1.16484049469782       -3.18961719252586        0.83256540342288
H           -1.13958782107589       -3.16849743306638       -0.95559957374826
H           -2.55400124541851       -2.54902403462562       -0.07425564809842
H            1.36876819971197       -2.94304898035483       -0.01692121109474
25
 energy: -5.914169731051 xtb: 6.6.1 (8d0f1dd)
C            3.26819571479855        1.16063356481282        0.09294736640316
N            2.31610092230248        0.10048460740414        0.03773540689788
C            2.60796589925772       -1.24507269398526        0.03111380807556
N            1.42320641512309       -1.93922671123231       -0.00146547346371
C            0.40644829316641       -1.05520265943392       -0.00616057317699
C            0.92852815418886        0.23119029116665        0.02032241828802
C            0.11975481450536        1.39307923971476       -0.00215100496709
O            0.50433027168706        2.56602289527178        0.00884435102852
N           -1.27253262894101        1.06107513424580       -0.05646965919179
C           -2.24597301793077        2.14713748188019       -0.07349124228617
C           -1.81298138104816       -0.18826735842322       -0.04667474551397
O           -3.01224623948327       -0.37850681842832       -0.06113143190582
N           -0.93273365720793       -1.29002490181423       -0.03147318491324
C           -1.46575895606813       -2.63152129612858       -0.05789569782191
H            3.74186349289064        1.20599128470660        1.07829453108465
H            4.04343442516852        1.01278128067732       -0.66281784584142
H            2.73970122471842        2.09263255351225       -0.09079388279684
H            3.58328032503395       -1.66454931978170        0.03572016357392
H           -1.69487576528808        3.08375097453629       -0.05560698304768
H           -2.92035789272929        2.09683308750922       -0.93295568932111
H           -2.89265313692188        2.07177048472600        0.79659693610004
H           -1.16188429470041       -3.18615385654264        0.83294396941679
H           -1.13619299243230       -3.16236516936373       -0.95451040962495
H           -2.55105021307458       -2.54273091081145       -0.07318574205986
H            1.36457167057119       -2.94329811663779       -0.02061957341835
25
 energy: -5.311596002466 xtb: 6.6.1 (8d0f1dd)
C            3.28151582840480        1.15430477460207        0.09625933366074
N            2.32216338103933        0.09967920598246        0.03903346519237
C            2.61146741744515       -1.24850557485888        0.03046181781088
N            1.42383518667353       -1.93907900462935       -0.00301539296484
C            0.40989772102160       -1.05205036470065       -0.00531241194172
C            0.93267131537292        0.23426593606357        0.02272637905031
C            0.12229655459298        1.39648853738656       -0.00067242552661
O            0.50910628017553        2.56883155236531        0.01622703245721
N           -1.27498329905521        1.06621909249116       -0.06821012972523
C           -2.25966941387699        2.14599220725329       -0.08495171765036
C           -1.81103582875021       -0.18441151365396       -0.04694831180865
O           -3.01010567430493       -0.37637228970076       -0.05620605073016
N           -0.92991469412425       -1.28481133530390       -0.02902991322647
C           -1.46263529549422       -2.62615259835831       -0.05665435513251
H            3.75346557662961        1.19974379106326        1.08286797941607
H            4.05931667395915        1.00027823893000       -0.65636752603498
H            2.75993256210358        2.08872931236762       -0.09121410819217
H            3.58568944357841       -1.67305783023653        0.03147752775151
H           -1.71106981977557        3.08379537398659       -0.07133731598525
H           -2.96654543178796        2.09552571179655       -0.92196948264591
H           -2.90060514661781        2.06826391932439        0.78761042157463
H           -1.15826045306877       -3.18146546259320        0.83358261221768
H           -1.13213810755666       -3.15585657833537       -0.95368774452100
H           -2.54787734674799       -2.53680496470873       -0.07233102514280
H            1.36024189628838       -2.94302415007286       -0.02444725423965
25
 energy: -4.429650525280 xtb: 6.6.1 (8d0f1dd)
C            3.29467374615415        1.14753761867173        0.09946361819511
N            2.32818346625352        0.09867814441472        0.04033950280497
C            2.61481139319658       -1.25205842691370        0.02986004340755
N            1.42417988357936       -1.93861228437790       -0.00518527616667
C            0.41323907104434       -1.04871127260695       -0.00466008580285
C            0.93672594076751        0.23739656238290        0.02510004727003
C            0.12488354235463        1.39982454905839        0.00092731885808
O            0.51383495834196        2.57126435876689        0.02495705690562
N           -1.27760894932688        1.07148801420496       -0.07964234693668
C           -2.27434170261203        2.14477968409222       -0.09598667020900
C           -1.80878691721979       -0.18049952143409       -0.04765664060292
O           -3.00747192266556       -0.37467585770427       -0.05120106193294
N           -0.92701162297896       -1.27955799708175       -0.02692227652210
C           -1.45941200949225       -2.62076347151050       -0.05545574602304
H            3.76484663748282        1.19317922486297        1.08733003349314
H            4.07512597655901        0.98720138031654       -0.64974002007830
H            2.78035641731188        2.08465321116726       -0.09203576463028
H            3.58782378109218       -1.68169497968347        0.02672423172139
H           -1.72829228345159        3.08399349749807       -0.08604160099826
H           -3.01293706269952        2.09299491677555       -0.91013229852856
H           -2.90923816884347        2.06380936634247        0.77933925476142
H           -1.15461060383901       -3.17655696997915        0.83432178194890
H           -1.12806754903407       -3.14941483431904       -0.95285143883918
H           -2.54459191249529       -2.53093784547819       -0.07150054575337
H            1.35590166677060       -2.94235307553981       -0.02861783136621
25
 energy: -3.263511963315 xtb: 6.6.1 (8d0f1dd)
C            3.30770322112602        1.14049916130331        0.10270634944585
N            2.33415523949745        0.09756342247560        0.04177407740580
C            2.61812357985832       -1.25566163976021        0.02897119539004
N            1.42450813508944       -1.93805966701378       -0.00794682038579
C            0.41653452069412       -1.04529935976963       -0.00413158580715
C            0.94070571505809        0.24053463254072        0.02749707473348
C            0.12738880741418        1.40310810197577        0.00285088190449
O            0.51835879115052        2.57344051516446        0.03535635362384
N           -1.28066411750672        1.07672080483996       -0.09056162529114
C           -2.28987867306254        2.14353481586219       -0.10630915099074
C           -1.80676563042162       -0.17673825424007       -0.04851384642094
O           -3.00501368926573       -0.37406451803593       -0.04618206323634
N           -0.92406455069111       -1.27431089375629       -0.02493268679994
C           -1.45611445528707       -2.61542043742040       -0.05409707589855
H            3.77622060484292        1.18612262965498        1.09174872365052
H            4.09061880486143        0.97375599258981       -0.64308350426466
H            2.80098385635174        2.08060783650264       -0.09269478581985
H            3.58985313655346       -1.69039274329353        0.02079077454855
H           -1.74684602484419        3.08457697557370       -0.09868030972890
H           -3.05917897024886        2.09016538223887       -0.89724253273095
H           -2.91901925855313        2.05839858799289        0.77143345015810
H           -1.15097028620496       -3.17157165799570        0.83531717325452
H           -1.12404160117959       -3.14308482126669       -0.95182362918842
H           -2.54122283305512       -2.52511666381685       -0.07045069985666
H            1.35171389031499       -2.94151651489551       -0.03340675464913
25
 energy: -1.831375186307 xtb: 6.6.1 (8d0f1dd)
C            3.32037210604021        1.13353614939309        0.10562044278780
N            2.33982100543083        0.09665714758402        0.04322436561415
C            2.62128110764154       -1.25887118154806        0.02794249881471
N            1.42511759623909       -1.93723654267309       -0.01050104169295
C            0.41972768535894       -1.04186329605843       -0.00379067860437
C            0.94433531237542        0.24380757627264        0.02990567599052
C            0.12928535474404        1.40640245869319        0.00545456800985
O            0.52192512418209        2.57561110106675        0.04739237781339
N           -1.28432585024027        1.08189819552163       -0.10075014668336
C           -2.30614494004548        2.14233816110791       -0.11569605096648
C           -1.80507019717977       -0.17310719579275       -0.04970277338514
O           -3.00283482586617       -0.37394193625662       -0.04184380085661
N           -0.92121712184656       -1.26918510778104       -0.02329049458840
C           -1.45278688613400       -2.61030985330493       -0.05277617989285
H            3.78737597076830        1.17887437802595        1.09573291104351
H            4.10532451365151        0.95975886594727       -0.63690544755618
H            2.82171440652706        2.07695389899033       -0.09363469578742
H            3.59155416189154       -1.69847098770574        0.01425978523023
H           -1.76569894418969        3.08514470384234       -0.11025137736524
H           -3.10545020239317        2.08710157028077       -0.88318134682679
H           -2.92925244883713        2.05283683596595        0.76470389460864
H           -1.14717381443689       -3.16645206681518        0.83644619500551
H           -1.12009251020705       -3.13730826158855       -0.95067914255702
H           -2.53785098945791       -2.51982449202884       -0.06929061808629
H            1.34823904815503       -2.94042326699450       -0.03806405306058
25
 energy: -0.199488390385 xtb: 6.6.1 (8d0f1dd)
C            3.33322865733728        1.12630122724902        0.10877164142983
N            2.34539536004247        0.09585774194087        0.04462913957623
C            2.62422476454087       -1.26193299528900        0.02638480297032
N            1.42563035045209       -1.93593702851995       -0.01359447484454
C            0.42284851414781       -1.03797415784382       -0.00314252886089
C            0.94775701274535        0.24760722220309        0.03218092631171
C            0.13001388951812        1.41029398375882        0.00773842024239
O            0.52365314271477        2.57850565079707        0.05776532094522
N           -1.28887713842571        1.08730586096673       -0.10993980830963
C           -2.32415106341424        2.14087972093687       -0.12429345768328
C           -1.80364903951465       -0.16945243961798       -0.04889539946946
O           -3.00086439606958       -0.37417089726792       -0.03431212175441
N           -0.91833072610814       -1.26381735850350       -0.02059894796221
C           -1.44936252273968       -2.60489349588504       -0.05136904906499
H            3.79840895043042        1.17063326360027        1.10009133840564
H            4.12029684650956        0.94520057060190       -0.63025229701782
H            2.84303113132903        2.07327769476380       -0.09424237105355
H            3.59269008390435       -1.70650817159191        0.00645864884210
H           -1.78740670680608        3.08627630147297       -0.12156421130531
H           -3.15111699495683        2.08418998858344       -0.87055178828023
H           -2.94065028971137        2.04561469738235        0.75945628851266
H           -1.14341656459584       -3.16208627283497        0.83705341815057
H           -1.11615565266778       -3.12999460416005       -0.95018964456815
H           -2.53434140132214       -2.51382101822238       -0.06798287784773
H            1.34540950238603       -2.93894070735932       -0.04397318012453
25
 energy: 1.650385656765 xtb: 6.6.1 (8d0f1dd)
C            3.34544233987888        1.11909116422678        0.11148410477193
N            2.35067937581103        0.09483207977290        0.04543490941405
C            2.62688141997428       -1.26518292378785        0.02342489132546
N            1.42588496225396       -1.93439770219523       -0.01677483061224
C            0.42564823906795       -1.03385090127675       -0.00297979658469
C            0.95076229996809        0.25177287283628        0.03440292468356
C            0.13051460761330        1.41520328662147        0.01089234144658
O            0.52461368639934        2.58227113813351        0.06954217647524
N           -1.29376801956572        1.09274647403197       -0.11906862778468
C           -2.34292189367462        2.13944640723098       -0.13184950479621
C           -1.80251484204768       -0.16574913016334       -0.04925797918231
O           -2.99915629819308       -0.37450740696847       -0.02912377342049
N           -0.91567463038603       -1.25859076679608       -0.01863366948225
C           -1.44605322773708       -2.59977939290975       -0.04949337439919
H            3.80886597189481        1.16190056164954        1.10394662186421
H            4.13445856235921        0.93095088982544       -0.62410447022136
H            2.86379308996847        2.06981109740186       -0.09487783055132
H            3.59347951456367       -1.71449343564159       -0.00302177650070
H           -1.80862507682362        3.08696234708695       -0.12954186200188
H           -3.19623510031175        2.08244181642866       -0.85868295352441
H           -2.95304563534054        2.03638467241297        0.75533135636479
H           -1.13977586983590       -3.15685781709570        0.83886045294127
H           -1.11244011379582       -3.12429606317725       -0.94853564238122
H           -2.53100006879708       -2.50845610832745       -0.06605735198548
H            1.34274596398108       -2.93720821837195       -0.04993202192756
25
 energy: 3.682304007702 xtb: 6.6.1 (8d0f1dd)
C            3.35748441682594        1.11187305715713        0.11411053755028
N            2.35516808558825        0.09481878412327        0.04611681930406
C            2.62794322618637       -1.26614964441655        0.01866974070015
N            1.42591446315565       -1.93227247776158       -0.01990941638346
C            0.42803801115404       -1.02933778072219       -0.00281751838337
C            0.95313945122537        0.25647533338625        0.03621287385000
C            0.13051887649671        1.42041941179322        0.01299093658630
O            0.52476497564624        2.58632159083811        0.08120101992161
N           -1.29922718581075        1.09798197139811       -0.12797409429583
C           -2.36283638839786        2.13756810503357       -0.13895159882425
C           -1.80174404280839       -0.16214210456943       -0.04873536866737
O           -2.99771559465656       -0.37552351784550       -0.02265107524094
N           -0.91320374923793       -1.25334683096728       -0.01637079025455
C           -1.44261211936382       -2.59470759628696       -0.04773948757325
H            3.81888381963439        1.15276953594826        1.10783204029536
H            4.14820084639322        0.91579030746514       -0.61784697282150
H            2.88492575102869        2.06638971016335       -0.09599046354345
H            3.59327623743829       -1.71900560879721       -0.01320975969745
H           -1.83084425475667        3.08737226617595       -0.13603982640157
H           -3.24129296949647        2.07871728444458       -0.84816960518939
H           -2.96655169751463        2.02552433715569        0.75157777808466
H           -1.13587183377741       -3.15208350605391        0.84023482870655
H           -1.10867555782492       -3.11806190468499       -0.94736411654540
H           -2.52751948606778       -2.50318845024588       -0.06400821448240
H            1.34093281952913       -2.93495218645341       -0.05595210210207
25
 energy: 5.858941733954 xtb: 6.6.1 (8d0f1dd)
C            3.36917303301530        1.10487080755482        0.11692564941121
N            2.35870519995207        0.09618823672123        0.04667157767210
C            2.62752908026175       -1.26465243270607        0.02661474771430
N            1.42602530897661       -1.92933897093512       -0.02211595122977
C            0.42999551072556       -1.02451416032320       -0.00379295130559
C            0.95487658714397        0.26163761700301        0.03682561846469
C            0.13004315124523        1.42570482208211        0.01380020789084
O            0.52417606347047        2.59024411780948        0.09283395234782
N           -1.30515951222027        1.10318219104106       -0.13736071774907
C           -2.38343379474918        2.13575529975496       -0.14628634829275
C           -1.80142970139879       -0.15844117643866       -0.04817011278557
O           -2.99668365050054       -0.37644268553477       -0.01572607666299
N           -0.91098704627362       -1.24805958889134       -0.01439070522094
C           -1.43903370824761       -2.58976993612835       -0.04589972222105
H            3.82800087485981        1.14333561805912        1.11212103377478
H            4.16139386252271        0.90004221509100       -0.61128164106697
H            2.90620959393580        2.06309176341535       -0.09744976696562
H            3.59154113408986       -1.71915694745736       -0.02631628228527
H           -1.85441633602864        3.08825978356966       -0.14138179959317
H           -3.28629810744351        2.07473237633527       -0.83952369107339
H           -2.98002907459334        2.01380330870027        0.74745324564512
H           -1.13169174776735       -3.14732090760447        0.84173118307570
H           -1.10471507256312       -3.11202315480363       -0.94603476276582
H           -2.52389530594813       -2.49842039837613       -0.06177781951736
H            1.34076440426157       -2.93195934093034       -0.06192984467479
25
 energy: 8.293782867864 xtb: 6.6.1 (8d0f1dd)
C            3.38034483189249        1.09690170584054        0.11962255473262
N            2.36212255183017        0.09611631422604        0.04396853676677
C            2.62818559702744       -1.26508257474295        0.03724976882681
N            1.42660827504763       -1.92706420908224       -0.02327479784153
C            0.43184909460623       -1.02061868335907       -0.00673513705652
C            0.95722739779269        0.26546987804622        0.03516642031860
C            0.13108545822833        1.42915486318570        0.01169726860718
O            0.52400009537334        2.59224664699744        0.10428658522871
N           -1.30989311238197        1.10675899647025       -0.14891838101871
C           -2.40343657170328        2.13396813901153       -0.15419603213927
C           -1.80129487272334       -0.15512712528933       -0.04753821408303
O           -2.99586633215182       -0.37695826422885       -0.00810513336939
N           -0.90872447808450       -1.24323919938411       -0.01242578307420
C           -1.43518533279348       -2.58515450863185       -0.04382215564011
H            3.83583009452404        1.13211029082422        1.11683898065414
H            4.17395614406871        0.88322985777614       -0.60443092099854
H            2.92731538098247        2.05885614740671       -0.09978583069335
H            3.59110314375424       -1.71750643148945       -0.03794000037046
H           -1.87550396692895        3.08848072234305       -0.14100322549458
H           -3.33121526236485        2.07601512265675       -0.83478729578342
H           -2.99040619317930        1.99794180191826        0.74296855567063
H           -1.12722566580394       -3.14275901167826        0.84351123274593
H           -1.10049561893600       -3.10607160430509       -0.94455198556194
H           -2.51989121474427       -2.49400421721535       -0.05888754812853
H            1.34223932294136       -2.92952550867720       -0.06242683668302
25
 energy: 32.927105041089 xtb: 6.6.1 (8d0f1dd)
C            3.39043340644575        1.08767166545965        0.11997220018273
N            2.37407432094756        0.08608601716763        0.04493445559843
C            2.63582321197519       -1.27311379464618        0.04082405224005
N            1.43424944580528       -1.93284488587486       -0.02177745222448
C            0.44039196299278       -1.02468513754913       -0.00483804537211
C            0.97150230686314        0.25938458159415        0.03921791753894
C            0.15632996020510        1.42900625296282        0.02271363413049
O            0.55704539903865        2.58903221646509        0.11646959813282
N           -1.29339783025029        1.11419066373379       -0.13241421389595
C           -2.38586403809706        2.14733530929412       -0.16650439494716
C           -1.78801887506319       -0.14839635010047       -0.03934756291258
O           -2.98382520498974       -0.36373203698956       -0.00765901470399
N           -0.90054866515571       -1.24137401790017       -0.00830522001774
C           -1.43201741503860       -2.58186134617312       -0.04116075548373
H            3.83763918591587        1.13008965651642        1.11976902386300
H            4.18572624085049        0.87173889686282       -0.59990622646472
H            2.93578960995255        2.04790123203140       -0.10655108732227
H            3.59798755078317       -1.72339551868031       -0.04863511583166
H           -1.83798226623432        3.09454898070945       -0.10500736173199
H           -3.56252494652158        2.11492743411423       -0.83278395592197
H           -3.02689668208999        1.97705713113101        0.65062222666346
H           -1.12617332355048       -3.14202240317297        0.84511833263422
H           -1.09915188652936       -3.10222284076682       -0.94268370580550
H           -2.51676971641335       -2.49104448583572       -0.05532478149259
H            1.34839255313059       -2.93524843160924       -0.05970863466112
