72
 energy: -99.337966146588 gnorm: 0.007748582602 xtb: 6.6.1 (8d0f1dd)
N           -1.90603445398865        2.76502648349098        2.19966648668958
C           -1.86275742657785        2.10089727086274        1.14210973866616
C           -3.02703016744228        1.90957668931232        0.20603744225221
C           -3.54384029781037        0.48643559983320        0.32372123986243
C           -4.68392829141307        0.09590594804723       -0.57630194474013
C           -5.02226865332957       -1.36296637890884       -0.52024372879325
O           -5.94198212513608       -1.86651461474571       -1.31827465714144
C           -6.64351384075240       -1.21804569631942       -2.19795975924521
C           -4.43233339535178       -2.24159478633224        0.42112724429043
O           -4.88764994001589       -3.51342034304341        0.37519846659641
C           -4.42611099882294       -4.43836934675566        1.33443760373642
C           -3.46168534464918       -1.76017274213246        1.27643179686446
C           -3.02811679091060       -0.41308276148870        1.19478770020741
C           -2.47053054464522        2.13882482351923       -1.22680514460610
C           -1.55187404511233        1.01469173552523       -1.73908453639158
C           -0.19907037680031        1.04894197366299       -1.13633896187607
N            0.49822965099249       -0.01810056189830       -0.74922312996175
C            1.87415712534364        0.11703448502276       -0.33460736787107
C            2.85951258363820       -0.33078457777026       -1.43092834974319
C            4.27019504005103       -0.12767776178659       -0.95306393268338
C            4.91146334210894        1.08511589392172       -1.14028061008125
C            6.19988470855415        1.28685669247462       -0.66919183605060
C            6.87135608934665        0.27773068696922        0.00492819507206
O            8.12066033945156        0.36120694688099        0.50246515365715
C            8.85242991252564        1.55136827496157        0.32131540122885
C            6.21959622427171       -0.96932755334487        0.20613051004326
O            6.94389725601607       -1.89524233276518        0.86880582225160
C            6.39306562724789       -3.17148601184896        1.08729408060888
C            4.93165908691158       -1.14741023329125       -0.27236887422881
C           -0.05667001166795       -1.34932390195181       -0.78471971033045
C           -4.19010447763318        2.91174343516532        0.47850311275507
C           -4.84849677570564        2.64722841211011        1.83102844841692
C           -3.75598756979813        4.37315750364877        0.40048615344516
H           -5.58448074817425        0.66192342288690       -0.27720618496431
H           -6.56602371099351       -0.15752309963071       -2.35785137103083
H           -7.33568515619647       -1.81414589925068       -2.75998764844771
H           -4.47800590261894        0.38970698737244       -1.60874893231196
H           -4.63752789764742       -4.09709047870444        2.35151060694505
H           -4.97533449209024       -5.35740125600966        1.14005492522946
H           -3.35373406890221       -4.62743029183386        1.22586804933012
H           -3.01168224151639       -2.39884223964520        2.01676672053381
H           -2.24447435916138       -0.11519576159547        1.87611546304574
H           -3.30924562467390        2.24299011200344       -1.91519782166697
H           -1.92006102105521        3.07968405286867       -1.24256388521641
H           -2.02705053040793        0.04686695207227       -1.58640183673209
H           -1.43849716805373        1.16349339334801       -2.82148169905315
H           -0.94630110490204        1.61340027157080        0.75701081716040
H            0.32895325895827        1.99038478773437       -1.14857292990329
H            2.03738846717184       -0.48376081289143        0.56477473020495
H            2.07501723165969        1.16120318152427       -0.08677119015268
H            2.67964008284046        0.26143370238573       -2.32965848246418
H            2.69041032717612       -1.38145015348671       -1.66958577833430
H            4.41378472754886        1.88409439212482       -1.66869947408776
H            6.67565428323617        2.23905546259173       -0.83682953982614
H            8.36728313893542        2.39948809629571        0.81425390656408
H            8.99380684083724        1.77701620082006       -0.73994052395073
H            9.82090783369648        1.37165723892722        0.78401335927997
H            7.16165838161786       -3.73547611318401        1.61214297114937
H            5.49449172970957       -3.12009577141057        1.71089696230944
H            6.15663781397652       -3.67397077656105        0.14408067027858
H            4.43094787727539       -2.09263872640353       -0.13158825174093
H           -0.23240650538655       -1.67638537673799       -1.81206764992923
H           -1.00233529676486       -1.38572735748622       -0.23835492619522
H            0.63987443552980       -2.03947832387325       -0.31581866392559
H           -4.93397379670277        2.75064252527094       -0.30999823405166
H           -4.15258045503142        2.88251190724726        2.62910795007918
H           -5.15157790986620        1.60822668923019        1.93381942327126
H           -5.72848041994253        3.27606444998766        1.93903448251625
H           -2.98344241869668        4.58090385634804        1.13387086249817
H           -3.39327473323615        4.63728365406754       -0.58940448991514
H           -4.61035997849811        5.00789638365533        0.62065095714093
H           -1.04952675154917        2.84660098983954        2.73893944606105
