25
 energy: 0.000000000000 xtb: 6.6.1 (8d0f1dd)
C            3.23720132972391        1.16630909158653        0.08434468864950
N            2.29877796055224        0.07527476373246        0.03981602671198
C            2.58028186251803       -1.21425391179017        0.03006175752192
N            1.43813944744728       -1.93419254010258        0.00098261751768
C            0.39035684826767       -1.05887462812143       -0.00790371763344
C            0.93510047688824        0.21347817468824        0.01709077332874
C            0.09450143016486        1.40504290868848       -0.00410946993748
O            0.49712746915594        2.54126690785742       -0.00342325656480
N           -1.25076628431515        1.06271869620815       -0.03085477937476
C           -2.21907191394203        2.15522079838987       -0.05001256521996
C           -1.81739470187490       -0.20012724136556       -0.04692818139228
O           -2.99983858926755       -0.37846413507442       -0.07008877579474
N           -0.92618577614240       -1.30210203518959       -0.03682761236648
C           -1.46982251276835       -2.64643077634382       -0.06029819901142
H            3.71247229913541        1.21471443890471        1.06488839270555
H            4.00791460421487        1.03430799217987       -0.67357688121503
H            2.69909982127087        2.09770098766290       -0.09130154035862
H            3.56654087521359       -1.63682977417947        0.04233139674524
H           -1.67107945562430        3.09322822573871       -0.02552706696334
H           -2.82428927394145        2.09428605349656       -0.95318074103337
H           -2.87644002486466        2.07745706351925        0.81450059976605
H           -1.17061985538665       -3.19584861009707        0.83242224714061
H           -1.14560246782873       -3.17511580834413       -0.95688266944647
H           -2.55549768731684       -2.55659960601237       -0.07459039105944
H            1.38130842369251       -2.94313824728853       -0.01389874052104
25
 energy: 0.271662074691 xtb: 6.6.1 (8d0f1dd)
C            3.24267592983498        1.18844509358323        0.09063699252718
N            2.30498079489845        0.10849233192384        0.02888534225985
C            2.59885119011244       -1.21647727244689        0.01231173594701
N            1.43136279145892       -1.92845561511131       -0.02415920033460
C            0.39507807504743       -1.05165226548859       -0.01674419803248
C            0.92745023043052        0.23146282368440        0.00307922762298
C            0.10556665432951        1.40899133824488       -0.01330029671023
O            0.50610501586247        2.57317790976347       -0.00717186806165
N           -1.25519631774241        1.06571945063701       -0.04244937399885
C           -2.20955139500995        2.17211343864022       -0.04980185972736
C           -1.81754972889634       -0.19110196184446       -0.06017730356868
O           -3.01528259430927       -0.36210034492835       -0.08280160166851
N           -0.93504785310250       -1.31126522847345       -0.02073877143262
C           -1.47180889444413       -2.67838948082208       -0.01104145545922
H            3.71756876058568        1.22407957661247        1.07461258463383
H            4.01430773764166        1.05804414802369       -0.66936460696122
H            2.70144475511702        2.11710689126863       -0.07852195639670
H            3.57769924176025       -1.63745362418906        0.02709179806407
H           -1.64852103988025        3.10508209496100       -0.02560240914353
H           -2.82357360062455        2.12849436841325       -0.94879323336090
H           -2.86170771556823        2.10495480267466        0.82048045122224
H           -1.30061838588927       -3.41900994086974        0.86917834514402
H           -1.08829009736235       -3.21939501343478       -0.86453947438427
H           -2.55473401990638       -2.55011085981109       -0.13696370447928
H            1.37100477062875       -2.93172387226689       -0.04707125150654
25
 energy: 16.714617538744 xtb: 6.6.1 (8d0f1dd)
C            3.24608709983785        1.20937459939782        0.09895566773888
N            2.30583708424763        0.13963887000605        0.01019952203515
C            2.61076422271617       -1.20956720167196       -0.01697224022134
N            1.42548685785059       -1.91199408909517       -0.06050043801920
C            0.39635452643400       -1.04557129404478       -0.03022918306942
C            0.91602087828845        0.24944563867407       -0.01417774172993
C            0.11895204770980        1.41020394534153       -0.02320459716848
O            0.50763309752203        2.59060244479534       -0.01211184119731
N           -1.26037552084546        1.06964212275665       -0.05490441714906
C           -2.19485248453419        2.19591838201756       -0.05019590780523
C           -1.81458445671060       -0.18366673596595       -0.06061050641047
O           -3.01956764165931       -0.34097599391067       -0.10413138039919
N           -0.94618261249544       -1.33281180690716        0.00813296145535
C           -1.48414200022972       -2.72126674114775        0.04114018880627
H            3.72111341277688        1.23136769447050        1.08576695163182
H            4.02257345122642        1.09099979709574       -0.66041711582766
H            2.70774790386073        2.14163953700878       -0.05807114054089
H            3.58453177160383       -1.62567577285277        0.00370239344012
H           -1.61481970408806        3.12067206543061       -0.02718067470439
H           -2.82164578553178        2.17647017296214       -0.94197479411079
H           -2.83837998518605        2.14465853914655        0.82863759689833
H           -1.47815005899483       -3.65981060434505        0.92401967769903
H           -0.99017393549991       -3.28853566795317       -0.74056833437741
H           -2.55570594160127       -2.54915329097443       -0.22519562602040
H            1.36769207827465       -2.91257582149044       -0.09307510875924
25
 energy: 34.352292562935 xtb: 6.6.1 (8d0f1dd)
C            3.24493013273726        1.22058100345104        0.10786491563566
N            2.30179841335648        0.15415127415426       -0.00953701410362
C            2.60953888633210       -1.20036112231483       -0.04774845065887
N            1.42213526629320       -1.89712305018635       -0.09199198942834
C            0.38863124374954       -1.04252625093252       -0.04397735172143
C            0.90643414890935        0.25928519649220       -0.02686394353029
C            0.12622659562092        1.41888198742300       -0.02951478416111
O            0.50690868989610        2.60202056024576       -0.01559898032448
N           -1.26466087086313        1.07927234513824       -0.06358365542001
C           -2.18146486874495        2.22072077594784       -0.05062093541021
C           -1.81738534812428       -0.17468570708725       -0.06108410426444
O           -3.02298671810422       -0.32115905085789       -0.12352573246972
N           -0.95969202409972       -1.34903941390206        0.02777536217477
C           -1.50009539990142       -2.75811515002962        0.07120707903718
H            3.71707406610403        1.22842032844451        1.09751731681097
H            4.02801063088363        1.11771232638136       -0.64799349689508
H            2.71377093432929        2.16040073455395       -0.03581377241878
H            3.58445271448785       -1.61284308956736       -0.02028131824140
H           -1.58162807501686        3.13487702345584       -0.02984809590171
H           -2.81603350775462        2.22141583008440       -0.93689706047171
H           -2.81643415255913        2.18386463813295        0.83526156553856
H           -1.60581056609289       -3.82684166341525        0.97671138691345
H           -0.89750805088944       -3.34830144551174       -0.62546290044252
H           -2.54421862114686       -2.58308439815857       -0.29326072049287
H            1.37022078557019       -2.89849489319786       -0.13569940755942
25
 energy: 49.980020040554 xtb: 6.6.1 (8d0f1dd)
C            3.24402411601015        1.22410170786369        0.11194046298107
N            2.29996291594663        0.15865308799591       -0.02447530028021
C            2.60437710496596       -1.19175809800125       -0.06661887210569
N            1.42230955896829       -1.88467435798653       -0.10699725043276
C            0.38165191547982       -1.03773149738127       -0.05490633539909
C            0.90284482174472        0.26608083986040       -0.03119942036532
C            0.13217674309563        1.43120837884576       -0.03231197170767
O            0.50944661946086        2.61055637523252       -0.01909898638167
N           -1.26598035833791        1.09204367546639       -0.06501508315878
C           -2.17559906923756        2.23759433501357       -0.05231004252959
C           -1.82035687615238       -0.16199645940780       -0.05814703641107
O           -3.02306523241173       -0.30482883293416       -0.13371443901923
N           -0.96651518252316       -1.35145170965059        0.03457692700573
C           -1.50893863621913       -2.77215596530566        0.07585016509863
H            3.71180227816607        1.22403837686652        1.10350477118270
H            4.03066161981435        1.12924955459243       -0.64085132050926
H            2.71701667990142        2.16788018228019       -0.02615104330538
H            3.58146630053598       -1.60298654467601       -0.02947830791859
H           -1.56728362112949        3.14609404432975       -0.03565961676429
H           -2.81213824054101        2.24496270122512       -0.93562848876598
H           -2.80547416781121        2.20852812581923        0.83669415048982
H           -1.68377389874951       -3.98496691870364        1.00451999480734
H           -0.85475747913264       -3.36431812978732       -0.54482269889344
H           -2.51668920557783       -2.60739296766941       -0.32539639172846
H            1.37504559870613       -2.88770111514377       -0.15726995369432
25
 energy: 68.756993760411 xtb: 6.6.1 (8d0f1dd)
C            3.24489084023240        1.22357121913044        0.11011362032005
N            2.30087101452474        0.15705186485354       -0.03856279552360
C            2.59327511039222       -1.17990976983600       -0.07995033122047
N            1.42448693391255       -1.86909462720151       -0.11382555872786
C            0.37311589101675       -1.02716268033919       -0.07254197436369
C            0.90383279154745        0.27554086069931       -0.03103251099888
C            0.14099109950735        1.45032514790974       -0.03509040448142
O            0.51628236455459        2.62068767590335       -0.02162331490776
N           -1.26310028245337        1.11259353448804       -0.06158045318711
C           -2.17404064123253        2.25271902021370       -0.04867138882522
C           -1.82267099123612       -0.13891329861409       -0.06406479818381
O           -3.01939920083362       -0.28376016010855       -0.14138863558192
N           -0.96742514229714       -1.33736482274756        0.01455429171219
C           -1.51763298859601       -2.75790989170072        0.06186906553032
H            3.70916083933359        1.22158933037630        1.10133687573664
H            4.03133986798709        1.13197751058674       -0.64150207816454
H            2.71956021564839        2.16899223692414       -0.02771446634103
H            3.57373892269967       -1.59237636638045       -0.03164338178458
H           -1.56694693133977        3.15998575699013       -0.03499601540830
H           -2.81122783061383        2.25816809966224       -0.92957365624407
H           -2.79937390212832        2.22146748199439        0.84172862751616
H           -1.78586117469303       -4.22135963673353        1.05609245811288
H           -0.79291065446574       -3.36984185397689       -0.43244681211063
H           -2.47882740367098       -2.61286081190449       -0.38237438451071
H            1.38008555717612       -2.87508703144498       -0.17007806616812
25
 energy: 80.048069958060 xtb: 6.6.1 (8d0f1dd)
C            3.24634670360321        1.22422933249244        0.10774011352983
N            2.30223997343761        0.15591036771870       -0.04322865119409
C            2.58464236676197       -1.16887878873341       -0.08328486922115
N            1.42633580797576       -1.85718760310684       -0.11810024641337
C            0.36793357721383       -1.01568230618606       -0.08594861220048
C            0.90703015626535        0.28500473945143       -0.03244838327066
C            0.14775397928039        1.46541091224790       -0.03933790493734
O            0.52176397079162        2.62888833120821       -0.02475776498465
N           -1.25776067157446        1.13014545455777       -0.06135015866698
C           -2.17246288976048        2.26461953692742       -0.04747024635581
C           -1.82097469194224       -0.12018767103157       -0.06831174000001
O           -3.01368861266047       -0.26663517104137       -0.14565037483978
N           -0.96282781595586       -1.31875112032486       -0.00509555735793
C           -1.51825756455330       -2.73067677449901        0.05030727784810
H            3.70794035534283        1.22241057875454        1.09855726282001
H            4.03248154928069        1.13338074655240       -0.64321140913089
H            2.72139090269978        2.17041165372443       -0.03089979823544
H            3.56764504993158       -1.58248392309365       -0.03219479144024
H           -1.57001050068450        3.17365050963025       -0.03568830414448
H           -2.81126504135597        2.26479850345754       -0.92658273673304
H           -2.79562943007670        2.22857089047317        0.84374090572103
H           -1.85955322178221       -4.45753696874574        1.09324717703524
H           -0.76673529120183       -3.36476684943549       -0.34747539783690
H           -2.45368946554459       -2.61024052379049       -0.41833646260223
H            1.38156510948045       -2.86537506846359       -0.17718541519418
25
 energy: 83.624710695302 xtb: 6.6.1 (8d0f1dd)
C            3.24674919575712        1.22273403783448        0.10383611363744
N            2.30558987809641        0.14196487053058       -0.02821908831488
C            2.56985001410849       -1.15345634136589       -0.06833881103189
N            1.43198903804773       -1.85273653893237       -0.11668314260985
C            0.36216255123642       -0.99727124157114       -0.10220296414760
C            0.92111838598704        0.29254397595616       -0.03383612123298
C            0.14648567398490        1.47867470374125       -0.04577820638761
O            0.52468075347799        2.62951926614603       -0.02567554436555
N           -1.24384994295323        1.14887765162415       -0.06413415221392
C           -2.17182008207204        2.27038770342016       -0.04687040876428
C           -1.81761749587262       -0.10059286297684       -0.08438762164064
O           -3.00492866022692       -0.25706212269811       -0.14315299017092
N           -0.94112642849620       -1.26303754026648       -0.07040738082681
C           -1.50043101477194       -2.61668285796375        0.00233699740511
H            3.70595369747114        1.22539022410376        1.09274377187767
H            4.03082216472678        1.13056527886266       -0.64763321021653
H            2.71774807258438        2.16755221158171       -0.03655709480327
H            3.55860734118782       -1.57237586303437       -0.03436666516621
H           -1.58079053838175        3.18501986619174       -0.03457116228654
H           -2.81307802526359        2.25596698800739       -0.92633427390823
H           -2.79781250410319        2.22085431220085        0.84287174041508
H           -1.87909280099556       -4.77486088252194        1.16038687915330
H           -0.79466590445638       -3.34023057361648       -0.25444881830146
H           -2.44211504727276       -2.58906070937160       -0.43529993331092
H            1.37778598317238       -2.86365476713792       -0.17624400059398
25
 energy: 82.776249641581 xtb: 6.6.1 (8d0f1dd)
C            3.24720145472801        1.22098169023693        0.09895193125024
N            2.30869404205889        0.12523679187283       -0.00082244944017
C            2.56114363604872       -1.14443275733688       -0.04641346523713
N            1.44130427489217       -1.86667714311163       -0.11472219595807
C            0.35969462609346       -0.98585616840172       -0.10980389099931
C            0.93803944024679        0.29462564947736       -0.03537157339280
C            0.13122971908501        1.47633359072106       -0.04318824315340
O            0.52574928120328        2.62505189334184       -0.01802208751536
N           -1.22921925070239        1.15076635400859       -0.06553355001300
C           -2.17219139774338        2.26393226848225       -0.04304656456884
C           -1.81987667410738       -0.09786098081110       -0.10799058381497
O           -3.00889311970542       -0.26032392999934       -0.13236156109704
N           -0.92515964031112       -1.20579054156891       -0.15910664972080
C           -1.47715358585932       -2.44215085233080       -0.09325947123966
H            3.70699307882994        1.22683073788174        1.08653824066680
H            4.02724553792503        1.12175828113630       -0.65456493123837
H            2.71053179181933        2.16071332885652       -0.04348016576234
H            3.55400878355832       -1.57294167444762       -0.03508750982494
H           -1.59439978215019        3.18586003804664       -0.02759166813194
H           -2.81533693741606        2.23662051579474       -0.92542952623920
H           -2.80609287293252        2.20197589042903        0.84310211748105
H           -1.80517716908443       -4.94172212076014        1.26015110900209
H           -0.82375557305798       -3.34411994507749       -0.20583830155462
H           -2.49432124597034       -2.56436021269861       -0.43586998297180
H            1.37195588752403       -2.87542191499752       -0.16420511433192
25
 energy: 81.798917802275 xtb: 6.6.1 (8d0f1dd)
C            3.25013995097849        1.22627355794624        0.10320530644153
N            2.31101038449307        0.13242294191171        0.01380873655000
C            2.57170723188546       -1.14594351445769       -0.03219890585596
N            1.45086411006753       -1.87447568584933       -0.11366294379590
C            0.37057685931962       -0.98644313588620       -0.11224172522918
C            0.94249732761724        0.30150323555581       -0.03917809435594
C            0.12850348768797        1.47212017193790       -0.04293782041069
O            0.53146063466012        2.63091042376135       -0.01627821949595
N           -1.22631689454682        1.14596269631712       -0.07575459547427
C           -2.17400746573165        2.25917863229304       -0.05226035465797
C           -1.81623589716954       -0.10320828262664       -0.11643427491747
O           -3.01067584607942       -0.25768729918460       -0.12981698941083
N           -0.92976603904221       -1.21649574079963       -0.17586334082755
C           -1.47487572061824       -2.42212494260850       -0.13494655487155
H            3.71131322126835        1.23760561965301        1.09121161125768
H            4.02803021376753        1.11857690983591       -0.65131579434557
H            2.70759661278859        2.16029800825176       -0.04588007898702
H            3.56101211039382       -1.57615155996983       -0.01497252777467
H           -1.60416289142350        3.18624104140147       -0.03477626922153
H           -2.81452328262195        2.22631189181825       -0.93619644797562
H           -2.81101904294337        2.19199819095648        0.83141187013990
H           -1.70262695972319       -5.02818022891031        1.27682936690048
H           -0.93917281423009       -3.28401072920457       -0.28877093790376
H           -2.52483177172515       -2.52610721476463       -0.32929269536444
H            1.37571678589979       -2.87954619863404       -0.14665440821914
25
 energy: 78.981778239921 xtb: 6.6.1 (8d0f1dd)
C            3.25462232534688        1.22884939308768        0.10534509407313
N            2.31110456909016        0.14840444006687        0.01197274712776
C            2.58147453050554       -1.15120634522747       -0.03342967436369
N            1.45124291673704       -1.86976497705748       -0.12078272032152
C            0.37970849321229       -0.98010664315488       -0.12976151454125
C            0.93942511223086        0.31791082939697       -0.04540629919033
C            0.13747295893010        1.48173858454716       -0.03952500346519
O            0.54516597788710        2.65065704178360       -0.00453951860630
N           -1.22962796456682        1.15847870389465       -0.08403268320646
C           -2.18058595495225        2.26677914025622       -0.04663806828132
C           -1.81150352451352       -0.08595141230073       -0.13839091236629
O           -3.01095989538120       -0.23231549307413       -0.13992321913575
N           -0.94532034477206       -1.23384133241902       -0.20182395855163
C           -1.50157323864697       -2.45682071804227       -0.17744095916412
H            3.71894651256400        1.24189710470227        1.09282739926034
H            4.02805173041857        1.11492421221083       -0.65280628276745
H            2.70871728611157        2.15947740688886       -0.04704590918509
H            3.56406602420548       -1.58079596440063       -0.00270632701566
H           -1.61561575333906        3.19577230741443       -0.02375065606821
H           -2.81780978909309        2.23226095225626       -0.92945079198568
H           -2.81263887189307        2.18515373005918        0.83758785394201
H           -1.69284885546301       -5.08921505063050        1.32636006411635
H           -0.91436324007594       -3.35663258023351       -0.27893775048107
H           -2.54915153718576       -2.48392693282797       -0.30666356941293
H            1.37421483761561       -2.87269760845231       -0.14400342821510
25
 energy: 78.310648905185 xtb: 6.6.1 (8d0f1dd)
C            3.25169995313804        1.22444697987617        0.10416911322948
N            2.30572390609629        0.14736338085023        0.01204893822535
C            2.58017803156587       -1.15730502835952       -0.03369282056879
N            1.44506186846487       -1.87158747777988       -0.11523868208959
C            0.38042507644844       -0.98225525029767       -0.11127980498633
C            0.93365652788731        0.31516877819611       -0.04131121306434
C            0.13262162118139        1.47540266640735       -0.03501472339927
O            0.54141988750185        2.64580718401818       -0.01398127952235
N           -1.23534512017726        1.15410119310816       -0.07847609435046
C           -2.18145173352958        2.26448711431745       -0.04852528745065
C           -1.81105446019928       -0.08687116533698       -0.12431867557477
O           -3.01230052827598       -0.24075295496816       -0.12809060937389
N           -0.94785803446556       -1.23860466722684       -0.18596114102588
C           -1.50366138939479       -2.46333807130312       -0.21809274393115
H            3.71791613471151        1.23610465798582        1.09113368653735
H            4.02613149911585        1.11411725266928       -0.65414274369681
H            2.70861692009841        2.15828176792627       -0.04308317318501
H            3.56143126017672       -1.58455648079644       -0.01080550214754
H           -1.60491587049978        3.18691762599688       -0.03018950330461
H           -2.81834698129434        2.22985369259157       -0.93148265340272
H           -2.81229642413294        2.19219240914689        0.83707398842705
H           -1.64205283740923       -5.02027523459751        1.36847627601526
H           -0.88763269581759       -3.34700552191557       -0.32367222201643
H           -2.58373155537019       -2.48793423834268       -0.31910970135073
H            1.36797924915241       -2.87472982342191       -0.13939951579868
25
 energy: 78.168673198251 xtb: 6.6.1 (8d0f1dd)
C            3.24996392100912        1.22204538389299        0.10569294805099
N            2.30336717225219        0.14402772923705        0.00834318365342
C            2.57618140191794       -1.15621741205033       -0.03576893241196
N            1.44222726014027       -1.86755306604443       -0.11981799224616
C            0.37781042638791       -0.98432177535609       -0.11285768158575
C            0.93041552308461        0.31150312106127       -0.04493511638218
C            0.13278101030318        1.47414930788018       -0.03765911794419
O            0.53819801610931        2.64150112500495       -0.01513413204575
N           -1.23727795099886        1.15446704273812       -0.07952431732628
C           -2.17989019564185        2.26628047587606       -0.04878091396546
C           -1.80974187583834       -0.08390732793289       -0.12423500602203
O           -3.00976077811980       -0.24666524664179       -0.13153344672484
N           -0.94536879366476       -1.23721247837542       -0.18237189330821
C           -1.50750457028536       -2.45505423645846       -0.25160410729319
H            3.71417088532502        1.23427684071834        1.09340208913418
H            4.02820724730082        1.11719698009101       -0.64958255429354
H            2.71107726064515        2.15969401118614       -0.04044484672979
H            3.56012040539070       -1.57950249245713       -0.01257494293915
H           -1.59987439230311        3.18659042442114       -0.02933735430733
H           -2.81783257400685        2.23652024378487       -0.93125578014358
H           -2.81030824873993        2.19561026273024        0.83689463008628
H           -1.62665941801318       -5.04782328872699        1.43017676479047
H           -0.88812371195283       -3.33874746027783       -0.32364848107747
H           -2.58968347006759       -2.48477443328398       -0.32975858619773
H            1.36971975473869       -2.87305494227294       -0.14665050057620
25
 energy: 77.825212828145 xtb: 6.6.1 (8d0f1dd)
C            3.24966807565018        1.22028932287800        0.10499304031549
N            2.30452179206392        0.14041878011611        0.00713937153302
C            2.57389483750192       -1.15624241474213       -0.03478713069067
N            1.44003280400023       -1.86486066875626       -0.11817737682565
C            0.37457334877539       -0.98870419637765       -0.11594260780969
C            0.92905243505926        0.30644299647441       -0.04270368633779
C            0.13697148040239        1.47462569130023       -0.03737130264979
O            0.53640033531616        2.63860779354974       -0.00993327456981
N           -1.23772990080795        1.15457582114441       -0.07657266918196
C           -2.17965210922406        2.26587603096805       -0.04684411026899
C           -1.81012251366977       -0.08132687749775       -0.12463858295537
O           -3.00833157655593       -0.25037370335506       -0.13598544822895
N           -0.94243309512805       -1.23620374791834       -0.17972432359994
C           -1.51185617152530       -2.45648708176516       -0.28693087623976
H            3.71495449043220        1.23463718313152        1.09199447887730
H            4.02703168324303        1.11625015417680       -0.65130032077435
H            2.71165824046948        2.15890052070992       -0.04268124627096
H            3.56074243430382       -1.57672800292885       -0.01225566155242
H           -1.60328896326709        3.18835213217365       -0.02690382447007
H           -2.81698354991656        2.23666530924413       -0.92987014834732
H           -2.81175968994832        2.19438128677570        0.83761384003664
H           -1.61782732098413       -5.03172902899815        1.48474526105464
H           -0.90156525220146       -3.33890016086119       -0.33074211477154
H           -2.58063945008285       -2.48674231854073       -0.34760128375331
H            1.37490194106595       -2.87269603215729       -0.14848609032422
25
 energy: 77.809011024198 xtb: 6.6.1 (8d0f1dd)
C            3.25008231378190        1.22113134524489        0.10606744268777
N            2.30594388076821        0.14047203150876        0.00847544804043
C            2.57347379254858       -1.15619379211123       -0.03505516994091
N            1.44040042284735       -1.86572315679561       -0.11832797116033
C            0.37323205550742       -0.98869463227571       -0.11924631073461
C            0.92999990212780        0.30724556762808       -0.04087955452869
C            0.13867020937057        1.47614762644194       -0.03844370649531
O            0.53645537559728        2.64035598362075       -0.01203983535264
N           -1.23701775890155        1.15494625610969       -0.07543147827193
C           -2.17944742025826        2.26619513903916       -0.04693167075395
C           -1.81298227874969       -0.08057074202266       -0.12434418696099
O           -3.01047636951877       -0.24719218382639       -0.13318010323758
N           -0.94363412481342       -1.23453650032191       -0.18434949063393
C           -1.51162120601468       -2.45135727169155       -0.29958511864653
H            3.71490331361971        1.23425228983334        1.09322410602111
H            4.02675135141629        1.11564653743100       -0.65076391865881
H            2.71077578904673        2.15847213533358       -0.04180844801546
H            3.56004326882397       -1.57830866162514       -0.01252094716649
H           -1.60408690344348        3.18938171556290       -0.02811877453093
H           -2.81714618357919        2.23507924386909       -0.92999728610483
H           -2.81159886698058        2.19507518526702        0.83788363346780
H           -1.61524950717220       -5.04023216630198        1.49174448628408
H           -0.90394591021729       -3.33827087412948       -0.32416865476524
H           -2.57744286889224       -2.49108135355023       -0.34560729468372
H            1.37613202805800       -2.87321093349425       -0.14956128366374
25
 energy: 77.750652832912 xtb: 6.6.1 (8d0f1dd)
C            3.25059476557092        1.22229951032186        0.10543375896648
N            2.30729392106385        0.14125211600240        0.00864349959056
C            2.57407532817646       -1.15645141503975       -0.03528179707741
N            1.44128399410019       -1.86704640318467       -0.11689329077092
C            0.37288522024639       -0.98888906929253       -0.11928989742180
C            0.93079286011814        0.30794680041374       -0.03825357660911
C            0.14022770473164        1.47665506517120       -0.03838938223321
O            0.53597669200564        2.64177298656074       -0.01298180864456
N           -1.23667765188315        1.15392937168269       -0.07462976067297
C           -2.17944139040440        2.26565922809116       -0.04669409831819
C           -1.81529037140901       -0.08173342725307       -0.12448000104179
O           -3.01181863562795       -0.24593495238669       -0.13266701606216
N           -0.94478914658072       -1.23496608514504       -0.18406442732142
C           -1.51237215840230       -2.45117758992764       -0.31039533815010
H            3.71500683322870        1.23503703002032        1.09265224521838
H            4.02721802827660        1.11519300488718       -0.65125738029551
H            2.71052666850726        2.15833747480473       -0.04333269210266
H            3.55989123495568       -1.58008248056410       -0.01171933637363
H           -1.60455035699456        3.18913314796533       -0.02711748964721
H           -2.81693943919695        2.23473841301394       -0.93012112294105
H           -2.81195202331524        2.19417300809674        0.83797179672138
H           -1.61823761672842       -5.03876501811674        1.48946889271320
H           -0.90342380007106       -3.33538682214481       -0.31674634513442
H           -2.57544976823194       -2.49284983215173       -0.34345622101414
H            1.37738341283665       -2.87381527308118       -0.14936529918318
25
 energy: 77.645191511949 xtb: 6.6.1 (8d0f1dd)
C            3.25066556441710        1.22280639640047        0.10621978820410
N            2.30770149474209        0.14164716748650        0.00836763388815
C            2.57444340502305       -1.15641436966114       -0.03640260945418
N            1.44198083851005       -1.86827147966974       -0.11721840168413
C            0.37293671150789       -0.98853736110233       -0.12025726546573
C            0.93121231613025        0.30836367763676       -0.03733230740951
C            0.14071465553828        1.47644069124549       -0.03873141966275
O            0.53545980488879        2.64223691836293       -0.01288685667624
N           -1.23645151770258        1.15284694563369       -0.07471416332566
C           -2.17945315214199        2.26531076638118       -0.04658819252627
C           -1.81643523538977       -0.08350281925550       -0.12597257995318
O           -3.01237103707207       -0.24582180719074       -0.13283690785828
N           -0.94509748113841       -1.23526798364143       -0.18592160273331
C           -1.51056003277457       -2.45127730186865       -0.32241199937348
H            3.71461316681229        1.23449194909987        1.09369980648386
H            4.02777419520152        1.11547793587646       -0.65000338798614
H            2.71048804651760        2.15834852540623       -0.04221996124632
H            3.55956310222214       -1.58123284090817       -0.01168069955238
H           -1.60465296964977        3.18881953925600       -0.02664416673419
H           -2.81680669328137        2.23478853134905       -0.93016395710946
H           -2.81212826338826        2.19364999898251        0.83801464230697
H           -1.61806266005623       -5.02916696326168        1.48269395811391
H           -0.90549626398333       -3.33768483236380       -0.30387694657898
H           -2.57508470073269       -2.49474375475972       -0.33476853181936
H            1.37726101077247       -2.87427874069016       -0.15132995965285
25
 energy: 77.593226443182 xtb: 6.6.1 (8d0f1dd)
C            3.25041402635210        1.22232316587620        0.10532159847957
N            2.30704063753697        0.14158775441749        0.00794150951118
C            2.57447479351422       -1.15614920921961       -0.03606009189687
N            1.44192000371288       -1.86787300605593       -0.11592760260329
C            0.37326385270052       -0.98807712506669       -0.11807231815475
C            0.93081021492121        0.30825246198833       -0.03689432968247
C            0.14036584861827        1.47625299648937       -0.03801828115129
O            0.53550908562598        2.64186307769111       -0.01273055227843
N           -1.23664775720314        1.15295391626404       -0.07409139875513
C           -2.17961875921369        2.26537596412539       -0.04657175219675
C           -1.81548507607346       -0.08400605231699       -0.12409103651028
O           -3.01168867501484       -0.24600932427629       -0.13198817659896
N           -0.94471795557906       -1.23619064723964       -0.18316172313876
C           -1.50889842904334       -2.45349545651893       -0.32972640517934
H            3.71514293000424        1.23474647518499        1.09245107994899
H            4.02721293298874        1.11519192769449       -0.65121481481486
H            2.71056630251292        2.15824424891872       -0.04302744026467
H            3.55960959835808       -1.58068754962122       -0.01168700259269
H           -1.60443736530283        3.18862506712044       -0.02750060481773
H           -2.81684729814147        2.23428676706997       -0.92992191170319
H           -2.81189695437924        2.19434110223214        0.83821542201793
H           -1.62346667588876       -5.02826424468276        1.47289935584527
H           -0.90186655301197       -3.33628237207091       -0.29270870266532
H           -2.57470576108430       -2.49411575706957       -0.33591719857414
H            1.37616133806240       -2.87386539219005       -0.15048371002948
25
 energy: 77.564728900854 xtb: 6.6.1 (8d0f1dd)
C            3.25018748048515        1.22181600226417        0.10570800027257
N            2.30639860644222        0.14116243654974        0.00789570065056
C            2.57446047215077       -1.15599358305280       -0.03587389639603
N            1.44174206383138       -1.86732946665132       -0.11691792721430
C            0.37371574661284       -0.98812705326636       -0.11839065285644
C            0.93053968856238        0.30760178842466       -0.03869785882130
C            0.13924321001560        1.47576593112451       -0.03821704785650
O            0.53562885812437        2.64085483078326       -0.01189498099320
N           -1.23679361185688        1.15314125270667       -0.07529033334259
C           -2.17968876510302        2.26522194965286       -0.04626783200404
C           -1.81392259504292       -0.08408066356665       -0.12558816398414
O           -3.01079265170709       -0.24721087343451       -0.13311358817591
N           -0.94388748651348       -1.23646867542205       -0.18421973840728
C           -1.50755437503911       -2.45393215707684       -0.33018974879033
H            3.71472784841335        1.23456894004289        1.09298495903637
H            4.02734424841589        1.11563797950791       -0.65059728566251
H            2.71082244653535        2.15846935078495       -0.04248013254300
H            3.56002312725943       -1.57970868350352       -0.01208263999360
H           -1.60415417887473        3.18823837040205       -0.02622651852101
H           -2.81699919554221        2.23517064052039       -0.92957921400689
H           -2.81182700136243        2.19344026581565        0.83844734203812
H           -1.62338485421416       -5.02472975845966        1.47161668039875
H           -0.90387007201516       -3.33835189100603       -0.28733943253962
H           -2.57526925682143       -2.49242832808818       -0.33547815212120
H            1.37552455221634       -2.87369981630776       -0.15117362597190
25
 energy: 77.575970832690 xtb: 6.6.1 (8d0f1dd)
C            3.25015137118380        1.22154195637568        0.10570823978641
N            2.30601582978444        0.14106173221106        0.00833237643120
C            2.57426330346846       -1.15609172303137       -0.03563571274131
N            1.44126610402679       -1.86675355893846       -0.11745839085111
C            0.37377005172899       -0.98823045298130       -0.11799515326514
C            0.93030878524058        0.30740100976996       -0.03929741574093
C            0.13848306753427        1.47578587880130       -0.03756911912257
O            0.53608334762944        2.64050108466686       -0.01149512914355
N           -1.23689622420255        1.15372062497550       -0.07512972984238
C           -2.17963327460758        2.26545079768763       -0.04644872842926
C           -1.81309975574534       -0.08338376022659       -0.12457244865973
O           -3.01045954456840       -0.24732453774636       -0.13250300771936
N           -0.94382888281719       -1.23648706772480       -0.18418040286737
C           -1.50731609408315       -2.45427607378290       -0.32914900928316
H            3.71512866312262        1.23428305457105        1.09278828243126
H            4.02686479921641        1.11566653663145       -0.65105649952103
H            2.71084123838389        2.15856828909317       -0.04206803186689
H            3.56010287709873       -1.57921999282076       -0.01266987408734
H           -1.60415917091984        3.18857220700560       -0.02722642777777
H           -2.81705503672941        2.23481305794584       -0.92960878919097
H           -2.81179701021916        2.19429637128026        0.83828709526398
H           -1.62266761596039       -5.02630016195892        1.47208056922375
H           -0.90389889700806       -3.33856010893487       -0.28635609846651
H           -2.57549172628770       -2.49253162095879       -0.33877847627964
H            1.37523809970277       -2.87347475316616       -0.15096420608600
