25
 energy: -42.456511587971 xtb: 6.6.1 (8d0f1dd)
C            3.25217414600101        1.22404727037200        0.10426910266476
N            2.30854307452123        0.14449014434670        0.00989188551089
C            2.57485700321069       -1.15244498290543       -0.03247489296408
N            1.44300201302828       -1.86380277825708       -0.11567896543740
C            0.37559647355195       -0.98327639400540       -0.11519126403396
C            0.93281544000666        0.31386064064915       -0.04143279420445
C            0.14176857811055        1.48092793497763       -0.03837754266822
O            0.53939207990195        2.64710432689078       -0.01291770222458
N           -1.23119422405795        1.15362526633543       -0.08200208078864
C           -2.17689147545801        2.26094624660946       -0.05139912366301
C           -1.80909478110221       -0.08502167932806       -0.12604018419583
O           -3.00797598879948       -0.24177307081113       -0.13096590033706
N           -0.94150207222233       -1.23625860764839       -0.18448814180799
C           -1.50726465151820       -2.45874570984721       -0.26211302569311
H            3.71724669715609        1.23632041167853        1.09132334463766
H            4.02780159175957        1.11590259227954       -0.65338739747022
H            2.70719485498214        2.15748158647672       -0.04545117107670
H            3.55920418028810       -1.58038962825013       -0.00683064597954
H           -1.60786391730208        3.18788488284257       -0.02773027417693
H           -2.81345087123755        2.22672308687068       -0.93535118233762
H           -2.81048733615672        2.18847225207700        0.83221479545718
H           -1.68373031159956       -5.07445185319852        1.32297955317121
H           -0.91694317621315       -3.34926924141093       -0.27581688354600
H           -2.57152997492203       -2.49045581825518       -0.30478233527467
H            1.37097674920595       -2.87011331879831       -0.14153155792819
