25
 energy: 0.000000000000 xtb: 6.6.1 (8d0f1dd)
C            3.23720132972391        1.16630909158653        0.08434468864950
N            2.29877796055224        0.07527476373246        0.03981602671198
C            2.58028186251803       -1.21425391179017        0.03006175752192
N            1.43813944744728       -1.93419254010258        0.00098261751768
C            0.39035684826767       -1.05887462812143       -0.00790371763344
C            0.93510047688824        0.21347817468824        0.01709077332874
C            0.09450143016486        1.40504290868848       -0.00410946993748
O            0.49712746915594        2.54126690785742       -0.00342325656480
N           -1.25076628431515        1.06271869620815       -0.03085477937476
C           -2.21907191394203        2.15522079838987       -0.05001256521996
C           -1.81739470187490       -0.20012724136556       -0.04692818139228
O           -2.99983858926755       -0.37846413507442       -0.07008877579474
N           -0.92618577614240       -1.30210203518959       -0.03682761236648
C           -1.46982251276835       -2.64643077634382       -0.06029819901142
H            3.71247229913541        1.21471443890471        1.06488839270555
H            4.00791460421487        1.03430799217987       -0.67357688121503
H            2.69909982127087        2.09770098766290       -0.09130154035862
H            3.56654087521359       -1.63682977417947        0.04233139674524
H           -1.67107945562430        3.09322822573871       -0.02552706696334
H           -2.82428927394145        2.09428605349656       -0.95318074103337
H           -2.87644002486466        2.07745706351925        0.81450059976605
H           -1.17061985538665       -3.19584861009707        0.83242224714061
H           -1.14560246782873       -3.17511580834413       -0.95688266944647
H           -2.55549768731684       -2.55659960601237       -0.07459039105944
H            1.38130842369251       -2.94313824728853       -0.01389874052104
25
 energy: -5.718991906962 xtb: 6.6.1 (8d0f1dd)
C            3.24126412358776        1.17714776682764        0.08708454290611
N            2.30422745806128        0.10643338376958        0.03005228223498
C            2.60319464437169       -1.23538278920987        0.02225080474388
N            1.42214247532435       -1.93441249955153       -0.00770387880220
C            0.39829630246182       -1.05933533242880       -0.01107117663981
C            0.91872758630783        0.22873453995846        0.01024639810854
C            0.11653007272781        1.38995232160365       -0.00870424806509
O            0.49516900228590        2.56478947793021       -0.00274966457310
N           -1.26750741598258        1.05147440343970       -0.03816442397650
C           -2.21550146797883        2.15576730218047       -0.05047360664404
C           -1.81613514051508       -0.19680673266353       -0.05016230762722
O           -3.01614877375755       -0.37843315160322       -0.07415288813024
N           -0.94024870145957       -1.31227297269393       -0.01030513689207
C           -1.47317243651271       -2.66198937294212       -0.03433141489547
H            3.71886362631655        1.22122036274445        1.07040691557728
H            4.01167730492371        1.04198137830711       -0.67429468597609
H            2.69925192139293        2.10493532755573       -0.08814483954939
H            3.58035421940423       -1.64618075706595        0.03425137019970
H           -1.65270502572788        3.08834125350109       -0.02574103817438
H           -2.82312328950968        2.10589493049210       -0.95340685724040
H           -2.87225223402713        2.08889434010643        0.81675845696460
H           -1.22975209252370       -3.27349414768055        0.84690990723241
H           -1.10952001866490       -3.19663729313262       -0.91316199692532
H           -2.55414814178993       -2.55190532243868       -0.11191265034205
H            1.36903856733333       -2.93827951447611       -0.02300028506864
25
 energy: -4.128689208177 xtb: 6.6.1 (8d0f1dd)
C            3.24191153385584        1.18238198422483        0.08916524684612
N            2.30560860694770        0.10996637767283        0.02505726606534
C            2.60607762684917       -1.23291606143780        0.01159827789149
N            1.42393600764393       -1.93122488348033       -0.01852297193337
C            0.39702503005652       -1.05946496590033       -0.01527259912807
C            0.91842339041914        0.23054715961725        0.00529813249549
C            0.11934783489937        1.39262366423321       -0.01346897181548
O            0.49742666704014        2.56784994817674       -0.00500817452068
N           -1.26646070772551        1.05217412664035       -0.04535629769571
C           -2.21100241541487        2.16183290873194       -0.05168729489131
C           -1.81565385301791       -0.19733804147755       -0.04878301678476
O           -3.01655852084036       -0.37330440629429       -0.08350621104929
N           -0.94251174471472       -1.32535080570300        0.01442250278419
C           -1.47898741763198       -2.68440343356801       -0.00861346580402
H            3.71923493518455        1.22368352400379        1.07345002949226
H            4.01362318797243        1.05365297352182       -0.67230694741837
H            2.69944703095624        2.11121477140570       -0.08129270531905
H            3.58339530579688       -1.64577904912668        0.02627143472855
H           -1.64317304199979        3.09235932632544       -0.02733227464594
H           -2.82500201339167        2.11983963531916       -0.95080350905616
H           -2.86372613979537        2.09899763753096        0.81915873935022
H           -1.29532529894370       -3.34536525354119        0.86375006498575
H           -1.07821457688802       -3.22220187375923       -0.86878855907442
H           -2.55417998404078       -2.55749675651785       -0.14399552374472
H            1.36768072656092       -2.93497081815096       -0.03754249131350
25
 energy: -1.522898380013 xtb: 6.6.1 (8d0f1dd)
C            3.24219518019133        1.18720953834833        0.09097199736487
N            2.30521829801321        0.11464969998602        0.01935115355596
C            2.60727270652623       -1.22875122242288       -0.00054876457417
N            1.42476083937861       -1.92723703893740       -0.02826208079131
C            0.39360048933516       -1.06004570176579       -0.01950740374303
C            0.91620492742823        0.23251346622403       -0.00012430768032
C            0.12143511334996        1.39520774671423       -0.01816563124343
O            0.49848767938066        2.57144788450014       -0.00669095238696
N           -1.26634911078674        1.05294711086095       -0.05106593490296
C           -2.20656805270855        2.16781170264048       -0.05227831403042
C           -1.81718313838041       -0.19674813617767       -0.04686341452166
O           -3.01820940890462       -0.36755100978235       -0.08999660772153
N           -0.94680979436266       -1.33802055512142        0.03717092290513
C           -1.48712887387808       -2.70839353982294        0.01504419555119
H            3.71938761391508        1.22600194222406        1.07632040279929
H            4.01515097002487        1.06139770464592       -0.67003320935932
H            2.70049565922901        2.11715540763434       -0.07659072298635
H            3.58508557548374       -1.64187511887881        0.01789411707507
H           -1.63265876337777        3.09564652897378       -0.02843738903237
H           -2.82446040920681        2.13181715593831       -0.94898582533263
H           -2.85673419895609        2.10957705271038        0.82114528817140
H           -1.36538779852498       -3.41510712324485        0.87837576668207
H           -1.04356334241621       -3.24754000764648       -0.82347222352763
H           -2.55220244627684       -2.56234239679760       -0.18173459902020
H            1.36710767173715       -2.93086958750270       -0.04952056132554
25
 energy: 2.108053283782 xtb: 6.6.1 (8d0f1dd)
C            3.24220765159825        1.19196416976888        0.09251945264760
N            2.30354333775541        0.12009694070982        0.01328076411339
C            2.60687373773777       -1.22331130587668       -0.01355437060645
N            1.42434083783108       -1.92237901979017       -0.03651986077443
C            0.38751532683538       -1.06072775629058       -0.02242323535478
C            0.91243815324405        0.23470219829758       -0.00468018361578
C            0.12265217115665        1.39863109259439       -0.02216094094198
O            0.49902904619700        2.57563677261702       -0.00961115126427
N           -1.26679555426346        1.05510930227465       -0.05541510926034
C           -2.20246017046289        2.17438319610309       -0.05215047058998
C           -1.81971993376707       -0.19497432458595       -0.04427128702493
O           -3.02059164589827       -0.36051985938348       -0.09871706403729
N           -0.95408980567425       -1.34991608558281        0.05863900758498
C           -1.49802037247447       -2.73507041979982        0.03703621690221
H            3.71955433035640        1.22898692291302        1.07893685086157
H            4.01644115874553        1.06786102962058       -0.66784565988389
H            2.70206152320352        2.12316388544602       -0.07305039638095
H            3.58567278803263       -1.63551562438123        0.00784349315753
H           -1.62217785724522        3.09919060432521       -0.02723357026294
H           -2.82296445034325        2.14472322268996       -0.94728114564952
H           -2.85081712479658        2.11922396126835        0.82306161966085
H           -1.43834362530268       -3.48361233128954        0.89371750972403
H           -1.00891813242568       -3.27243979975877       -0.77793595702617
H           -2.54873208985093       -2.56812575444539       -0.22029242259442
H            1.36702979548905       -2.92602931163517       -0.05993489723883
25
 energy: 6.451927575580 xtb: 6.6.1 (8d0f1dd)
C            3.24284880418290        1.19705070870008        0.09440175599313
N            2.30212375549002        0.12647759883494        0.00644875602529
C            2.60525453741608       -1.21733935396230       -0.02635625566615
N            1.42275190668366       -1.91667798382793       -0.04462133370430
C            0.38250731671489       -1.05842138436440       -0.02730431105507
C            0.90934651229908        0.23894726005024       -0.01024128992663
C            0.12426807198628        1.40473807442246       -0.02677487838855
O            0.50070919502298        2.58194182373166       -0.01466975246430
N           -1.26642437536173        1.06062087296567       -0.05817371098514
C           -2.19824865383372        2.18249464518588       -0.05126667955546
C           -1.82188238011842       -0.18943900550048       -0.04799897729541
O           -3.02269203295986       -0.35109177669432       -0.10868692874857
N           -0.96048536464356       -1.35246778920101        0.05705828788149
C           -1.50949404784679       -2.75031826059096        0.04435733446964
H            3.71971039469291        1.23041839310853        1.08211271903677
H            4.01857669812054        1.07493081535402       -0.66506055517472
H            2.70501465545968        2.12997973363175       -0.06872761396200
H            3.58466893843750       -1.62922451087329       -0.00309863484541
H           -1.61297258030089        3.10475568873039       -0.02509966841490
H           -2.82121155080961        2.15800229712832       -0.94486243780104
H           -2.84459727565077        2.12846308751380        0.82552301847099
H           -1.50912161398348       -3.54448377674629        0.90368157479317
H           -0.97518746679777       -3.29532696696473       -0.73575190114571
H           -2.54498076606885       -2.58395095106073       -0.26216056445940
H            1.36645989315117       -2.92035570063351       -0.06940291671094
25
 energy: 11.684161138046 xtb: 6.6.1 (8d0f1dd)
C            3.24342958996811        1.20184685194607        0.09676913659815
N            2.30168697840882        0.13237328552122       -0.00205481526185
C            2.60430548216404       -1.21200701863407       -0.03871368092736
N            1.42196202784884       -1.91092749400914       -0.05965083163252
C            0.38052113512730       -1.05365364298325       -0.03693950174992
C            0.90781688684728        0.24435131985903       -0.01702150133212
C            0.12547925214474        1.41150131925133       -0.02786885841131
O            0.50085311258613        2.58900526883021       -0.01215251702496
N           -1.26616465660682        1.06760522413944       -0.05829042941198
C           -2.19465231237952        2.19127377717538       -0.05234018759795
C           -1.82352536796387       -0.18169424591815       -0.05083028354831
O           -3.02397632025950       -0.34278374210693       -0.11366793248734
N           -0.96269337357063       -1.34781262053408        0.04741112541706
C           -1.51234559531269       -2.74949957885222        0.04702925266557
H            3.71750699356086        1.22790481248385        1.08658311476139
H            4.02074417194696        1.08410506918022       -0.66199019834574
H            2.70696287273574        2.13631373241107       -0.06204548388803
H            3.58364521035203       -1.62483955802561       -0.00773646430837
H           -1.60284601176686        3.10975232027278       -0.03214800392906
H           -2.82207167074940        2.16789232806966       -0.94297232644599
H           -2.83709533122205        2.14335042774626        0.82766432575899
H           -1.57209956332172       -3.59996273325023        0.91495911248623
H           -0.93867308777755       -3.31710306185036       -0.68864913403298
H           -2.53640621569973       -2.59940412957279       -0.29837494157186
H            1.36632272639376       -2.91464027864579       -0.08917556070083
25
 energy: 19.132237080002 xtb: 6.6.1 (8d0f1dd)
C            3.24374954037416        1.20601970968847        0.09799133456634
N            2.30077336676584        0.13795984481782       -0.01133554545098
C            2.60302626467385       -1.20656757838802       -0.05019190574112
N            1.42107317204152       -1.90529107778588       -0.06918979963806
C            0.37919380098212       -1.04801941948532       -0.04325428911319
C            0.90637179885236        0.25026905321587       -0.02225401765015
C            0.12687964476173        1.41886771870124       -0.02947738039752
O            0.50133815621105        2.59660248394352       -0.01529856616249
N           -1.26517423726595        1.07530485829275       -0.05641700559434
C           -2.19084734608288        2.20034095698312       -0.05217270328875
C           -1.82438357397140       -0.17289508704918       -0.05176351197812
O           -3.02436646930954       -0.33316094452996       -0.11925499046120
N           -0.96336456665163       -1.34204678337016        0.03956589994567
C           -1.50745784817781       -2.74641358748803        0.04509872059675
H            3.71440863744093        1.22615388361218        1.08998485923770
H            4.02273604708376        1.09093752032981       -0.65958707908075
H            2.70865561042028        2.14164753732917       -0.05818517810428
H            3.58249483535613       -1.61986446046869       -0.01533804399045
H           -1.59272028664609        3.11503787779931       -0.03401670220417
H           -2.82061610682056        2.17952084797943       -0.94144528790255
H           -2.83127886550714        2.15576827528961        0.82942103588670
H           -1.61932294230724       -3.67656597997123        0.92089104288205
H           -0.90036186123899       -3.32898790881688       -0.64871825578347
H           -2.51998862348834       -2.61569142320184       -0.32745849674223
H            1.36603104036717       -2.90922526951830       -0.10090713233807
25
 energy: 30.605241328711 xtb: 6.6.1 (8d0f1dd)
C            3.24398818351417        1.20996513374733        0.10075867484692
N            2.30037394362525        0.14305385175464       -0.02147371357822
C            2.60107126030030       -1.20051776418785       -0.06298029881422
N            1.42088118529383       -1.89912281004585       -0.08059829755387
C            0.37884622369300       -1.04099754256933       -0.05192776501051
C            0.90583523082268        0.25740914261487       -0.02769114462997
C            0.12910741380976        1.42711053604169       -0.03176732326018
O            0.50471477803651        2.60443733634045       -0.01873250805341
N           -1.26304839605074        1.08466882324671       -0.05623427739717
C           -2.18690448724331        2.21008057629666       -0.05135318864151
C           -1.82437154879837       -0.16157130834635       -0.05652810364841
O           -3.02390111254019       -0.32121641983677       -0.12716464341557
N           -0.96316469227714       -1.33344176980353        0.02507051366912
C           -1.50180510821300       -2.72705981656958        0.03475466999044
H            3.71049215169754        1.22287520898757        1.09500010409192
H            4.02474542392292        1.09863592549657       -0.65551380112187
H            2.70982432696128        2.14668605257003       -0.05172129386570
H            3.58113312877841       -1.61339676172245       -0.02497433646119
H           -1.58368892756499        3.12159637060843       -0.03322537910474
H           -2.81862087440329        2.19233766594338       -0.93944893587735
H           -2.82544854844252        2.16561617200215        0.83157624502979
H           -1.67039762535641       -3.77482256003338        0.94810940948711
H           -0.86442329280521       -3.33783289185373       -0.59762238167090
H           -2.50374515351703       -2.62078763936201       -0.36000950618385
H            1.36644484708116       -2.90358599941511       -0.11438003369304
25
 energy: 51.685637240395 xtb: 6.6.1 (8d0f1dd)
C            3.24546315181541        1.21315825776035        0.10216706561718
N            2.30228842380759        0.14389145976419       -0.02918194067810
C            2.59349011755840       -1.18982767057142       -0.07053455035297
N            1.42347083531599       -1.88951660624040       -0.09336780060081
C            0.37734152407557       -1.02835187108546       -0.06393721128147
C            0.90942321742666        0.26900313432709       -0.03037819182484
C            0.13115844934287        1.43955463175024       -0.03303821136767
O            0.51228993733188        2.61297297658410       -0.01994412776681
N           -1.25631431385124        1.10058282977734       -0.05558902296302
C           -2.18234489407852        2.22280130646011       -0.05120545441936
C           -1.82206630843729       -0.14480276226427       -0.06574050507605
O           -3.02020864393485       -0.30360354936904       -0.13259580435052
N           -0.95764699382989       -1.31189506761160       -0.01117167899701
C           -1.48611253701194       -2.66043824304969       -0.00854324090453
H            3.70750371256611        1.21913623214790        1.09674251968056
H            4.02688225612451        1.10595520839475       -0.65280148548582
H            2.71083629392637        2.15070734041766       -0.04593543816784
H            3.57571879141685       -1.60446745252533       -0.03072042595090
H           -1.57711974139641        3.13264329393961       -0.03676288303956
H           -2.81633564874816        2.20319215005394       -0.93773531879327
H           -2.81934587559873        2.17662876875059        0.83277786393610
H           -1.73775567539472       -3.98167538199754        1.01590997169745
H           -0.82777407916748       -3.33794501851322       -0.53316529543378
H           -2.48860542405526       -2.61818842839148       -0.39080397115678
H            1.36591875063389       -2.89569603789999       -0.12658548990794
25
 energy: 63.762273467780 xtb: 6.6.1 (8d0f1dd)
C            3.24508951449501        1.21659844428726        0.10229102721231
N            2.30334236387512        0.14395280969763       -0.03510774241019
C            2.58606608882758       -1.17932972193513       -0.07652342611210
N            1.42515954042140       -1.88134245651458       -0.10359534148180
C            0.37538705655817       -1.01463925091207       -0.07516999835018
C            0.91476821003852        0.28012314581498       -0.03409898467673
C            0.13317070243343        1.45170157402738       -0.03577553647639
O            0.51887374260145        2.62104445380485       -0.02314911875405
N           -1.24924179361275        1.11608519424486       -0.05732107698201
C           -2.17754186186939        2.23544759675182       -0.05122542308515
C           -1.81912211481276       -0.12993693319912       -0.07582005882710
O           -3.01593232942900       -0.28804102661190       -0.13726449714009
N           -0.95075825034147       -1.28651128370003       -0.04084664860484
C           -1.47218055279281       -2.60233673202191       -0.04697431312641
H            3.70400527285239        1.21889398641420        1.09570663536921
H            4.02786342205983        1.11391310952402       -0.65054941142160
H            2.70945631621890        2.15456379368282       -0.04090259059325
H            3.56939600840987       -1.59582052580919       -0.03475599745404
H           -1.57382532922025        3.14542585481574       -0.03678678747874
H           -2.81299314981949        2.21600855130404       -0.93667256624030
H           -2.81287086910214        2.18819143911240        0.83369943866824
H           -1.79596797287409       -4.17739154838629        1.06008212661002
H           -0.79741543776373       -3.33567583729096       -0.46151349263553
H           -2.47325127747048       -2.61411277889035       -0.41852064961804
H            1.36556695078116       -2.88874784589248       -0.13890805603683
25
 energy: 70.464576033958 xtb: 6.6.1 (8d0f1dd)
C            3.24532957868667        1.22034099275423        0.10380420901385
N            2.30512284113642        0.14522746146871       -0.03505974571756
C            2.58167945774241       -1.17026894453640       -0.07901064198775
N            1.42729002206223       -1.87398238892632       -0.11035160801520
C            0.37515434653671       -1.00164708979284       -0.08591116736023
C            0.92081921953044        0.29048786578586       -0.03685024042804
C            0.13557708447952        1.46167530410454       -0.03891091907289
O            0.52519383250109        2.62843441614421       -0.02503934596976
N           -1.24411271953310        1.12930531705878       -0.06048396510076
C           -2.17418333478646        2.24709732877850       -0.05112888218251
C           -1.81685667338971       -0.11650043789431       -0.08660898571859
O           -3.01316136724439       -0.27483846084739       -0.14179258667496
N           -0.94499673318287       -1.26518875951004       -0.06557345974879
C           -1.46378278253247       -2.55583915271930       -0.07572808497306
H            3.70350500546706        1.22123535195338        1.09511150462485
H            4.02836909089984        1.11957289183167       -0.64816627472692
H            2.70946126001417        2.15876090814633       -0.03604597971767
H            3.56543823199682       -1.58767283179402       -0.03619089649438
H           -1.57247370499534        3.15819953146506       -0.03588209227082
H           -2.81044695001677        2.22908455395228       -0.93604440655750
H           -2.80825545719075        2.19915032348628        0.83440064833637
H           -1.84013729269205       -4.34522424111362        1.08621573124320
H           -0.78104216004328       -3.33247939035049       -0.38877997540275
H           -2.46751254144744       -2.59127163254646       -0.43035045390658
H            1.36743191329235       -2.88182258164069       -0.14963681380391
25
 energy: 74.295421542470 xtb: 6.6.1 (8d0f1dd)
C            3.24622096016135        1.22228036491182        0.10446670731835
N            2.30636468280271        0.14471901272191       -0.02642712041945
C            2.57745115193954       -1.16326041335906       -0.07607230374800
N            1.42922979708748       -1.86779091289163       -0.11627456314068
C            0.37372231846522       -0.99117822466315       -0.09726792773608
C            0.92606818718580        0.29883539022160       -0.03884234292451
C            0.13767827447767        1.46893963643016       -0.04137914926994
O            0.52975436315795        2.63358142008686       -0.01727388611163
N           -1.24022380308784        1.14035123169560       -0.06438145015920
C           -2.17217349061383        2.25755946881593       -0.05048212996689
C           -1.81521681875455       -0.10359041683016       -0.09747978597498
O           -3.01108839091296       -0.26284157785459       -0.14137025992183
N           -0.94338938729326       -1.24760189559389       -0.09069674470195
C           -1.47150755724464       -2.51423036114508       -0.10568861019133
H            3.70628834941576        1.22270206623892        1.09296463296633
H            4.02918278641025        1.12469383917504       -0.64643074830641
H            2.71034284051045        2.16217865081811       -0.02975154303228
H            3.56161029671858       -1.58047521843944       -0.03570235517883
H           -1.57501770504364        3.17065443532041       -0.03654808619966
H           -2.80941864625761        2.24117800076693       -0.93482430598418
H           -2.80427997415655        2.21055580590929        0.83593103414913
H           -1.85314163720912       -4.50599232510199        1.11049243737157
H           -0.79223017826259       -3.32484359048093       -0.31865115786341
H           -2.49279849446755       -2.56958731107105       -0.42107648017839
H            1.37041221238935       -2.87527013341910       -0.15924216884085
25
 energy: 76.389414572276 xtb: 6.6.1 (8d0f1dd)
C            3.24831442683628        1.22393614819058        0.10452243419504
N            2.30838939885926        0.14447331320427       -0.01788576324214
C            2.57433581784658       -1.15778674350123       -0.06866764624141
N            1.43185414493941       -1.86224345303836       -0.11915493091888
C            0.37426930128186       -0.98341389164126       -0.10396646933722
C            0.93139182020484        0.30589929359971       -0.03907034509273
C            0.13985620006215        1.47416710885157       -0.04218584722611
O            0.53440785253968        2.63901581622853       -0.01549994943747
N           -1.23706763591570        1.14710292981941       -0.06837325904721
C           -2.17075930216373        2.26477147155270       -0.04782339579301
C           -1.81365548069878       -0.09554729323852       -0.10727966910368
O           -3.00943928545968       -0.25922218039715       -0.13878908306061
N           -0.94062533643827       -1.23439801365684       -0.11126915350648
C           -1.47520234484346       -2.48298057265920       -0.12864045471308
H            3.70820007670578        1.22740027545252        1.09318173388458
H            4.03207359322227        1.12993266871189       -0.64458443593083
H            2.71333361432554        2.16507832709567       -0.02858929375038
H            3.55694560838761       -1.57876976526005       -0.03725106558565
H           -1.57991635250624        3.17982153952612       -0.03344159459157
H           -2.81032794251606        2.25290255020817       -0.92975013335198
H           -2.79913980236758        2.21912512909638        0.84110192759454
H           -1.86516737102253       -4.65430397409361        1.13514686018473
H           -0.81296004754814       -3.32056151436483       -0.25145968832855
H           -2.50625026373963       -2.55409386188114       -0.40269800508401
H            1.37315257060945       -2.86845809772111       -0.16926600219186
25
 energy: 77.216616588079 xtb: 6.6.1 (8d0f1dd)
C            3.25057040444871        1.22437506142303        0.10271649983860
N            2.31048180435749        0.14337961308086       -0.00914225254509
C            2.57426422020147       -1.15516744538375       -0.05902754221826
N            1.43637348285648       -1.86062364361885       -0.11732646639273
C            0.37794855831571       -0.97956548325967       -0.10929633074356
C            0.93558986370086        0.31125905069053       -0.04041077253783
C            0.14047110090699        1.47795940650621       -0.04082224203450
O            0.53797744582481        2.64355793965479       -0.01070346136063
N           -1.23400120982229        1.15136555345847       -0.07133543256669
C           -2.17086648055939        2.26787160431269       -0.04594181087278
C           -1.81181934527588       -0.08972439227765       -0.11545714726233
O           -3.00857468891436       -0.25411634718937       -0.13433725525313
N           -0.93711497948856       -1.22640861517971       -0.13124593050407
C           -1.47742714254216       -2.46305907768330       -0.16206138703800
H            3.71041770466561        1.23364978274396        1.09239150454288
H            4.03320588151677        1.13153830206635       -0.64803015879441
H            2.71460927517222        2.16499889173976       -0.03443360746959
H            3.55764192603098       -1.57796442118770       -0.03047244188781
H           -1.58734915915624        3.18484519211437       -0.02727831481718
H           -2.81140923349703        2.25566506329046       -0.92681695038011
H           -2.79853329845895        2.21515062108384        0.84274226980242
H           -1.86558779186014       -4.78307282874245        1.17024653183303
H           -0.84534778582857       -3.32735468599020       -0.21227174270678
H           -2.52154383574311       -2.54097495264182       -0.36180535955420
H            1.37036062695549       -2.86542609162276       -0.17070900292663
25
 energy: 77.563085389745 xtb: 6.6.1 (8d0f1dd)
C            3.25114894356920        1.22479969433489        0.10418160755582
N            2.31026296169932        0.14165214869903        0.00063048368951
C            2.57292391456364       -1.15523112742645       -0.04733744835488
N            1.43864420500183       -1.86489070289764       -0.11647203707805
C            0.37805962977998       -0.97994398136222       -0.12142807311296
C            0.93632441618779        0.31330776804533       -0.04512455290556
C            0.14147216381121        1.47946033869327       -0.04148277000800
O            0.54033365511266        2.64565431689589       -0.00544090814336
N           -1.23132947389142        1.15297044197847       -0.07774669575386
C           -2.17268298134451        2.26616170494979       -0.04604841630543
C           -1.81028976199069       -0.08454356685752       -0.12634280872572
O           -3.00814416762459       -0.24286704091118       -0.13916198872178
N           -0.93862382576595       -1.22542313367522       -0.15188022311173
C           -1.49520319511763       -2.45490667742854       -0.18505098902915
H            3.71484054533377        1.23856735467489        1.09220206771990
H            4.02881020902150        1.12643212206087       -0.65203989194967
H            2.71113682878046        2.16226913026900       -0.03855164111998
H            3.55839043938814       -1.57761385872203       -0.01727279122116
H           -1.59631560888036        3.18666279346749       -0.03265176366369
H           -2.81425369705286        2.24472885579826       -0.92619984805457
H           -2.80171623952034        2.20588969116857        0.84198396506767
H           -1.81671145686995       -4.89294152454184        1.24059410259554
H           -0.88737881900201       -3.32176291213173       -0.25695275146772
H           -2.54497791540039       -2.52412143071246       -0.32342724036915
H            1.36854111626225       -2.87122292528325       -0.16026136441604
25
 energy: 77.657513403519 xtb: 6.6.1 (8d0f1dd)
C            3.25322539976052        1.22515628238067        0.10553673449706
N            2.31047610244909        0.14232497068707        0.00975812507929
C            2.57362216661214       -1.15400509068542       -0.03594863391793
N            1.44217391047153       -1.86611487842833       -0.11431008846689
C            0.37803869554241       -0.98028384830857       -0.12445200820601
C            0.93634369598499        0.31578406981505       -0.04632882325111
C            0.14445828994109        1.48334238441963       -0.04067028130110
O            0.54185795472116        2.64952275763830       -0.00546163675905
N           -1.22915629389023        1.15593665071085       -0.08185356608271
C           -2.17450448054948        2.26375229047555       -0.04676045866930
C           -1.80858077217066       -0.08053175652469       -0.13290728884500
O           -3.00733139660582       -0.23583163413526       -0.14327494975063
N           -0.93951586105733       -1.22688900377042       -0.16998592810540
C           -1.50672918289319       -2.44877884961315       -0.21989647084810
H            3.71883421223591        1.24032249558138        1.09235056040228
H            4.02730790927864        1.12063410058275       -0.65387222714653
H            2.70877152715369        2.15914513673097       -0.04194987080747
H            3.55959359759943       -1.57804886821525       -0.00575759488801
H           -1.60658218029486        3.19066241137935       -0.02670948968476
H           -2.81534935906336        2.23480007847759       -0.92681351761906
H           -2.80539975160375        2.19611272206259        0.84010494852362
H           -1.72195414357597       -4.98154704920262        1.26498725315360
H           -0.91281271633862       -3.31693474706736       -0.28898925718368
H           -2.56183607576281       -2.49735944966346       -0.30443860184731
H            1.37194215367682       -2.87324662660372       -0.14719656545440
25
 energy: 77.722766362051 xtb: 6.6.1 (8d0f1dd)
C            3.25217414600101        1.22404727037200        0.10426910266476
N            2.30854307452123        0.14449014434670        0.00989188551089
C            2.57485700321069       -1.15244498290543       -0.03247489296408
N            1.44300201302828       -1.86380277825708       -0.11567896543740
C            0.37559647355195       -0.98327639400540       -0.11519126403396
C            0.93281544000666        0.31386064064915       -0.04143279420445
C            0.14176857811055        1.48092793497763       -0.03837754266822
O            0.53939207990195        2.64710432689078       -0.01291770222458
N           -1.23119422405795        1.15362526633543       -0.08200208078864
C           -2.17689147545801        2.26094624660946       -0.05139912366301
C           -1.80909478110221       -0.08502167932806       -0.12604018419583
O           -3.00797598879948       -0.24177307081113       -0.13096590033706
N           -0.94150207222233       -1.23625860764839       -0.18448814180799
C           -1.50726465151820       -2.45874570984721       -0.26211302569311
H            3.71724669715609        1.23632041167853        1.09132334463766
H            4.02780159175957        1.11590259227954       -0.65338739747022
H            2.70719485498214        2.15748158647672       -0.04545117107670
H            3.55920418028810       -1.58038962825013       -0.00683064597954
H           -1.60786391730208        3.18788488284257       -0.02773027417693
H           -2.81345087123755        2.22672308687068       -0.93535118233762
H           -2.81048733615672        2.18847225207700        0.83221479545718
H           -1.68373031159956       -5.07445185319852        1.32297955317121
H           -0.91694317621315       -3.34926924141093       -0.27581688354600
H           -2.57152997492203       -2.49045581825518       -0.30478233527467
H            1.37097674920595       -2.87011331879831       -0.14153155792819
25
 energy: 77.407446858353 xtb: 6.6.1 (8d0f1dd)
C            3.24982020658226        1.22118799791274        0.10564999178759
N            2.30520834823299        0.14209905811346        0.00823729069802
C            2.57365642758384       -1.15565382713513       -0.03439139924141
N            1.43991657840653       -1.86521754550466       -0.11751807725290
C            0.37172149415231       -0.98768214658201       -0.11487518275151
C            0.92918789743198        0.30924382690034       -0.04142912690388
C            0.13990931217682        1.47695772332789       -0.03784432655774
O            0.53676060428680        2.64292816925874       -0.01049399854810
N           -1.23521851012668        1.15151245381133       -0.07797399041165
C           -2.17883011670469        2.26209132866871       -0.04801319761419
C           -1.81125431616342       -0.08586438947548       -0.12480780544809
O           -3.00900208027139       -0.24825968816380       -0.13647162394495
N           -0.94570347397260       -1.23998057153758       -0.18113795352159
C           -1.51162810285067       -2.46024019410686       -0.29970221724452
H            3.71460473583830        1.23391204521882        1.09282897288073
H            4.02754405482616        1.11711429307488       -0.65048467818631
H            2.70811108960018        2.15695072654272       -0.04081895850455
H            3.55861175350654       -1.57926159514482       -0.01215640736391
H           -1.59959586132006        3.18303391184165       -0.02914163439270
H           -2.81701327588773        2.23005733758464       -0.93082683481160
H           -2.81099328016788        2.18952349827192        0.83676685750117
H           -1.62447453656655       -5.02125149484385        1.39384524903017
H           -0.89939880377174       -3.33847695285188       -0.31932544193773
H           -2.58040284653504       -2.49240594067877       -0.33120374771283
H            1.36772446063667       -2.87133380641815       -0.14505635813599
25
 energy: 77.575970832690 xtb: 6.6.1 (8d0f1dd)
C            3.25015137118380        1.22154195637568        0.10570823978641
N            2.30601582978444        0.14106173221106        0.00833237643120
C            2.57426330346846       -1.15609172303137       -0.03563571274131
N            1.44126610402679       -1.86675355893846       -0.11745839085111
C            0.37377005172899       -0.98823045298130       -0.11799515326514
C            0.93030878524058        0.30740100976996       -0.03929741574093
C            0.13848306753427        1.47578587880130       -0.03756911912257
O            0.53608334762944        2.64050108466686       -0.01149512914355
N           -1.23689622420255        1.15372062497550       -0.07512972984238
C           -2.17963327460758        2.26545079768763       -0.04644872842926
C           -1.81309975574534       -0.08338376022659       -0.12457244865973
O           -3.01045954456840       -0.24732453774636       -0.13250300771936
N           -0.94382888281719       -1.23648706772480       -0.18418040286737
C           -1.50731609408315       -2.45427607378290       -0.32914900928316
H            3.71512866312262        1.23428305457105        1.09278828243126
H            4.02686479921641        1.11566653663145       -0.65105649952103
H            2.71084123838389        2.15856828909317       -0.04206803186689
H            3.56010287709873       -1.57921999282076       -0.01266987408734
H           -1.60415917091984        3.18857220700560       -0.02722642777777
H           -2.81705503672941        2.23481305794584       -0.92960878919097
H           -2.81179701021916        2.19429637128026        0.83828709526398
H           -1.62266761596039       -5.02630016195892        1.47208056922375
H           -0.90389889700806       -3.33856010893487       -0.28635609846651
H           -2.57549172628770       -2.49253162095879       -0.33877847627964
H            1.37523809970277       -2.87347475316616       -0.15096420608600
