  72
        -99.31661072
 N         -0.8397374291        2.7959551415        1.8698052888
 C         -1.3302471485        1.9064534683        1.1393669457
 C         -2.7105399949        1.9764802793        0.5405790720
 C         -3.2819515191        0.5733387308        0.5314177144
 C         -4.2262877186        0.1738868494       -0.4068819306
 C         -4.7047916463       -1.1293597228       -0.4391529643
 O         -5.6191812423       -1.6000475926       -1.3059941519
 C         -6.2451976378       -0.7166804409       -2.2069698560
 C         -4.2123238223       -2.0821327660        0.4993018080
 O         -4.6891430194       -3.3276225857        0.3593956224
 C         -4.2392196609       -4.3379901979        1.2330598315
 C         -3.3227428630       -1.6558513464        1.4772795668
 C         -2.8732473585       -0.3506333661        1.4954461376
 C         -2.5290741940        2.5446979427       -0.8921794300
 C         -1.7956268971        1.6113695940       -1.8603887198
 C         -0.3494599446        1.5394174138       -1.5684103438
 N          0.4093385059        0.4784627626       -1.8305328986
 C          1.5851955008        0.3187259704       -1.2402688064
 C          2.4517467567       -0.8744932004       -1.3530598042
 C          3.8450204213       -0.6005929717       -0.8527642845
 C          4.5158046523        0.5436329790       -1.2676946552
 C          5.8069110628        0.8059742277       -0.8427455946
 C          6.4655023963       -0.0785889873        0.0028285030
 O          7.7150858342        0.0672015392        0.4701674959
 C          8.4726696168        1.1923059273        0.0861257237
 C          5.7889924669       -1.2596734211        0.4274851162
 O          6.5016230333       -2.0626929049        1.2336194695
 C          5.9396990729       -3.2713268630        1.6899724703
 C          4.4897572777       -1.4945757946       -0.0052874002
 C         -0.1285292172       -0.5647449246       -2.6749555662
 C         -3.6953171183        2.8927891484        1.3330533638
 C         -3.8484182918        2.4367127955        2.7815928564
 C         -3.3047949459        4.3677121997        1.3060159683
 H         -4.5918791703        0.8813089685       -1.1332428127
 H         -6.7456784882        0.1021979801       -1.6816145608
 H         -6.9874962903       -1.3138375400       -2.7331202507
 H         -5.5332255714       -0.3072647954       -2.9301415290
 H         -4.5315894298       -4.1301801435        2.2666049752
 H         -4.7238243932       -5.2528869597        0.8974651937
 H         -3.1533313731       -4.4557449645        1.1777576403
 H         -2.9474948803       -2.3459323010        2.2148330140
 H         -2.1772962228       -0.0560837420        2.2635401019
 H         -3.5148368406        2.7712218566       -1.3006535254
 H         -1.9815609265        3.4844009494       -0.8190709031
 H         -2.2152398084        0.6053009855       -1.7825841764
 H         -1.9688379695        1.9721252687       -2.8818491312
 H         -0.8004517644        0.9964939956        0.8322901055
 H          0.1051006096        2.3332087813       -0.9945731405
 H         -0.8502579089       -0.6687616407       -0.0052688857
 H          1.8766426260        1.0831124326       -0.5354770907
 H          2.5215965818       -1.2208155796       -2.3910924838
 H          1.9928160838       -1.6905380299       -0.7804148537
 H          4.0301876631        1.2368026952       -1.9376929313
 H          6.2994883681        1.7028028044       -1.1810369180
 H          8.0065387411        2.1227943247        0.4233812856
 H          8.6158548655        1.2266862118       -0.9979283883
 H          9.4382011379        1.0748086430        0.5742688629
 H          6.7087484058       -3.7360728866        2.3039313687
 H          5.0476031810       -3.0940714830        2.2982292676
 H          5.6895143366       -3.9356479385        0.8575008030
 H          3.9686997712       -2.3828537665        0.3145688084
 H          0.6701155239       -1.1315953391       -3.1413737205
 H         -0.7690872926       -0.1383762905       -3.4432419065
 H         -0.7095612847       -1.2321004658       -2.0313852954
 H         -4.6693976724        2.7823156692        0.8388717177
 H         -2.9059795980        2.5443661428        3.3117399118
 H         -4.1729368727        1.4005960113        2.8404990879
 H         -4.5914530742        3.0533116205        3.2811467394
 H         -2.2851408904        4.4874193247        1.6623616524
 H         -3.3941102199        4.7963496448        0.3119572225
 H         -3.9649195046        4.9238595870        1.9670315922
 H          0.1056398181        2.6750980050        2.2162007986
