25
 energy: 57.169628076998 xtb: 6.6.1 (8d0f1dd)
C            3.54275629414634        0.95274784932595        0.12673495115371
N            2.53950615788173       -0.07251092473953        0.01424351166280
C            2.78474706573885       -1.38359485707074       -0.05406479539011
N            1.60932836961196       -2.06285712780003       -0.05802075606063
C            0.59892089466554       -1.13061686357561       -0.00497957546932
C            1.18493123613151        0.12886778556394        0.03632360860331
C            0.33849923117171        1.36236306384281        0.06858918488259
O            0.85242612475962        2.46715687959317        0.14302166215022
N           -1.00537745527915        1.12607640720190        0.03795077594367
C           -3.44951546330848        2.66446627947415       -0.15726369725462
C           -1.61835677201039       -0.02061029532145        0.02601034763633
O           -2.78195933390857       -0.32652316212376        0.05042295977095
N           -0.70771919460827       -1.28882779463975       -0.00947229018616
C           -1.29809232393816       -2.59600329425742       -0.02807974526741
H            3.95293312332779        0.97576274550089        1.13730419799774
H            4.34490081810078        0.72013126661829       -0.57328377237294
H            3.15121813025871        1.94051657778195       -0.08569518456875
H            3.73990791980090       -1.84998514039713       -0.08663351007466
H           -2.83133156235345        3.51939089869470       -0.14761268250205
H           -3.85753105674407        2.34190254242424       -1.08062691331415
H           -3.96286182779089        2.38625524153394        0.72618104475424
H           -0.95134240668298       -3.16553399047426        0.83684572268783
H           -1.02127474854664       -3.12127375497516       -0.94723107769515
H           -2.38369367167961       -2.50219676739312        0.01885877323556
H            1.52560261580882       -3.06822216961714       -0.09069695327423
