25
 energy: 54.674325018975 xtb: 6.6.1 (8d0f1dd)
C            3.59553313304212        0.88979662260871        0.11143338786294
N            2.60750204865314       -0.15401820737577        0.03488699770301
C            2.84259880046975       -1.45116013292189       -0.02649791802592
N            1.67267219371333       -2.13090314375755       -0.04949475070197
C            0.65152296323615       -1.21313460614426        0.00323936473948
C            1.25432272188726        0.04094063668835        0.05684695401288
C            0.42381349304622        1.27463067512586        0.08004290892546
O            0.94112345736722        2.38091034257542        0.11165899737639
N           -0.90224095297957        1.03898276775763        0.06192298362231
C           -3.82158400078583        3.07392931150511       -0.17068456247618
C           -1.52642310277853       -0.10117825684814        0.03454818856760
O           -2.70276578533620       -0.33446387604784        0.01945316721997
N           -0.65169137503811       -1.40327798899368       -0.00021379053204
C           -1.28752196373328       -2.69439442158934       -0.03719656429785
H            4.00699656235219        0.95230620720307        1.11943001125195
H            4.40570821608442        0.70765342007125       -0.59464070681110
H            3.09558196639798        1.83500456342260       -0.11254525885057
H            3.80666946481941       -1.90368834900133       -0.06166229086034
H           -3.17885574165469        3.92190443267566       -0.15480260819829
H           -4.12298744207879        2.66851424488921       -1.10855959164125
H           -4.23091793671231        2.70650879064320        0.74292644560565
H           -1.01162133271280       -3.29487490747547        0.83378699355929
H           -1.04657900285949       -3.23644225952981       -0.95659277534067
H           -2.36247788951250       -2.50655062871395       -0.01015477524436
H            1.57503468588649       -3.13155778080980       -0.09577470684614
