  25
        -42.11064653
 C          3.1696989187        1.0856265682       -0.0013697070
 N          2.2961982377        0.0770482281       -0.0192018459
 C          2.5611599893       -1.2468736136       -0.0349626967
 N          1.3989459906       -1.9531959685       -0.0267880320
 C          0.3653451575       -1.0683359786       -0.0053141370
 C          0.9098367107        0.2045358588       -0.0002469915
 C          0.0873451825        1.3926507384        0.0008487860
 O          0.4875401942        2.5317834402        0.0077701505
 N         -1.2702296394        1.0639695984       -0.0114746187
 C         -2.2253924694        2.1628765917       -0.0387674923
 C         -1.8395439898       -0.1955193797       -0.0099247534
 O         -3.0257685946       -0.3667541188       -0.0207204489
 N         -0.9566415171       -1.3000638606        0.0042285957
 C         -1.5103083062       -2.6390001291        0.0103760169
 H          2.2984240257        1.9094484181        2.2885408405
 H          4.2150914156        0.8604779190       -0.1565942347
 H          2.7919775345        2.0910796314       -0.0529745796
 H          3.5400167059       -1.6809644013       -0.0525830714
 H         -1.6694536871        3.0969778193       -0.0103669091
 H         -2.8257121469        2.1078144895       -0.9474222669
 H         -2.8954648967        2.0923029416        0.8179178521
 H         -1.2330420648       -3.1632631860        0.9254352501
 H         -1.1697907811       -3.1985749994       -0.8609858913
 H         -2.5950440022       -2.5451118189       -0.0287094940
 H          1.3392204220       -2.9610400741       -0.0312334001
