  72
        -99.22545229
 N         -1.5241705598        3.3214017260        2.3390219134
 C         -1.5483974192        2.6188589974        1.3080470365
 C         -2.7314007208        2.4748900820        0.3955590906
 C         -3.2260874998        1.0566739774        0.4850956970
 C         -4.2047783909        0.4807783506       -0.3361567623
 C         -4.3802601067       -0.8528236877        0.0744272647
 O         -5.2204197178       -1.7930364204       -0.4067595677
 C         -6.0543912894       -1.4081088348       -1.4801048359
 C         -4.9672570660       -4.4464220681       -1.1250884610
 O         -5.8397543822       -4.7179298946       -0.3257096777
 C         -5.8735209672       -4.9269064160        1.0948616419
 C         -3.4932447045       -1.1067249229        1.1518742469
 C         -2.7917145920        0.0632158995        1.3988692436
 C         -2.2302528454        2.7674509992       -1.0445645920
 C         -1.4119853728        1.6286314106       -1.6768679414
 C         -0.0750151801        1.4498278117       -1.0718677105
 N          0.4616312944        0.2881893232       -0.7325034696
 C          1.8400963736        0.2136498065       -0.3115568759
 C          2.7560925584       -0.2713199405       -1.4520212140
 C          4.1907702693       -0.2282235255       -1.0069314354
 C          4.9355916075        0.9311106403       -1.1472711428
 C          6.2500895147        0.9877247887       -0.7106887640
 C          6.8453357549       -0.1170853038       -0.1195412732
 O          8.1105391124       -0.1769654214        0.3375477884
 C          8.9400463463        0.9546341287        0.2102873355
 C          6.0875805584       -1.3107401556        0.0320274224
 O          6.7437221323       -2.3361610650        0.6123957414
 C          6.0852754443       -3.5688726297        0.7779181444
 C          4.7744011204       -1.3427380492       -0.4095209270
 C         -0.2784848216       -0.9488035615       -0.8075319320
 C         -3.9092023301        3.4346150805        0.7392259523
 C         -4.4984597464        3.1223045697        2.1117331127
 C         -3.5193311304        4.9077976451        0.6639996951
 H         -4.7381393309        0.9774642765       -1.1228986022
 H         -6.7268156808       -0.5986136710       -1.1804531142
 H         -6.6343180344       -2.2875910068       -1.7518444379
 H         -5.4610556123       -1.0879483156       -2.3405801354
 H         -6.3905349585       -4.0734449287        1.5332846477
 H         -6.4383880666       -5.8415155350        1.2730099185
 H         -4.8617703487       -5.0093519376        1.4941887815
 H         -3.4018051976       -2.0366561976        1.6774073623
 H         -2.0661512806        0.2015471053        2.1791701417
 H         -3.0993015282        2.9422166532       -1.6780749263
 H         -1.6323383781        3.6799408434       -1.0339544854
 H         -1.9939074193        0.7093808022       -1.6433152734
 H         -1.2613308655        1.8966561957       -2.7307253357
 H         -0.6823935289        2.0345370435        0.9393735071
 H          0.5694149988        2.3159171473       -1.0200304296
 H          1.9204778224       -0.4698497516        0.5376119467
 H          2.1754943401        1.2012267350        0.0123104611
 H          2.6148699426        0.3825178403       -2.3145168630
 H          2.4790276539       -1.2862115349       -1.7392164720
 H          4.4982045184        1.8014773199       -1.6125206629
 H          6.8064146373        1.9013445368       -0.8407152474
 H          8.5413295423        1.8085099315        0.7666200557
 H          9.0784449943        1.2339181556       -0.8385472440
 H          9.8984513722        0.6631980708        0.6354666556
 H          6.8147887828       -4.2294307630        1.2424294365
 H          5.2144441979       -3.4742452739        1.4347145178
 H          5.7755745312       -3.9909735743       -0.1832623566
 H          4.1926031663       -2.2451394059       -0.3051043250
 H         -0.5533426770       -1.1816646316       -1.8374175014
 H         -1.1897221036       -0.8837689408       -0.2044881654
 H          0.3346315090       -1.7583029959       -0.4211277481
 H         -4.6845274204        3.2438506469       -0.0120756821
 H         -3.7685381979        3.3310845990        2.8871817630
 H         -4.7940639299        2.0779709293        2.1787169810
 H         -5.3757544032        3.7411741668        2.2830656260
 H         -2.7212487001        5.1211723770        1.3688042045
 H         -3.2017853814        5.1932617375       -0.3354175174
 H         -4.3784888470        5.5195832770        0.9279182228
 H         -0.6646296250        3.3490996942        2.8784378077
