72
 energy: -99.540192502062 xtb: 6.6.1 (8d0f1dd)
N           -1.74953404735843        3.28640290190318        1.94382379681135
C           -1.60268596114909        2.44078382942612        1.03417718239454
C           -2.70759022760439        2.18578149156980        0.03593795233783
C           -3.28163729568337        0.78446484098650        0.17176949715913
C           -4.23267268033675        0.35213400595809       -0.75578506650858
C           -4.81872815270902       -0.89329169486596       -0.65115373737647
O           -5.74836530867575       -1.39833085430473       -1.51278498707031
C           -6.19149047172128       -0.60526278179756       -2.58355462807188
C           -4.45564997016672       -1.74074997122837        0.42104254342838
O           -5.09781099710073       -2.93926214020411        0.46396830580928
C           -4.84886613555586       -3.77352500592864        1.56411614876106
C           -3.51508779632853       -1.31009614077261        1.33760041027912
C           -2.93096149283023       -0.05542582442126        1.20902340468147
C           -2.04436709576107        2.34402737150059       -1.38191022386206
C           -1.17742497500945        1.14432044404173       -1.85111944491429
C            0.16658324153416        1.03557617260216       -1.25321893599682
N            0.65668231236346       -0.04228115543631       -0.56796559425957
C            2.05251061939023       -0.05788405184506       -0.21357096911372
C            2.99661409619885       -0.63944743216851       -1.29275334643739
C            4.42722972785435       -0.51928470573951       -0.84611076754521
C            5.13655784029806        0.64853554088377       -1.05715384937473
C            6.44924191953547        0.77380248791562       -0.62198404751464
C            7.07695050711812       -0.26788239770073        0.03650619453771
O            8.35330999800053       -0.25344453462518        0.50677863314199
C            9.13378794826806        0.89874187910709        0.31020504971668
C            6.36244807380975       -1.46776647903856        0.25929751447946
O            7.06015152740113       -2.43862889973827        0.90926749495884
C            6.44526824941951       -3.67993977116917        1.14006491567954
C            5.05374215964445       -1.57251690544799       -0.17809687265770
C           -0.02018173643710       -1.31306578795548       -0.63573130295997
C           -3.81409480988831        3.15807860857651        0.22651370992248
C           -4.81205901933167        1.81585761696084        3.36373348794640
C           -3.63398522713245        4.62668590571255        0.15084986191347
H           -4.52426925471570        1.01710177468940       -1.55240886510965
H           -6.67474396103580        0.31532390222331       -2.24011193225504
H           -6.92201873369136       -1.21548340708091       -3.11371789184137
H           -5.37413179743170       -0.35247642794572       -3.26783991633677
H           -5.10744481737606       -3.28318917113997        2.50852649893103
H           -5.48932507870078       -4.64076757754337        1.42001650933574
H           -3.80219938080923       -4.09555558840814        1.60070271037929
H           -3.23659615216362       -1.92333124412132        2.17927328212573
H           -2.21831483340545        0.27405954592011        1.94826975609651
H           -2.84196114004849        2.49672310575176       -2.11415563366951
H           -1.43357313067893        3.25028912317930       -1.38395063930140
H           -1.74338320513387        0.22296830336987       -1.72245294881516
H           -1.02881055201028        1.29163653156113       -2.92937642191694
H           -0.69415788334537        1.85848934333630        0.84050736512796
H            0.77263806866160        1.92549487445354       -1.19396687638491
H            2.15443071228158       -0.64632582045702        0.70359184878307
H            2.37185595794494        0.96460698450887        0.00002583555020
H            2.85308016803953       -0.08841459356037       -2.22369068396534
H            2.74736306635459       -1.68695552103638       -1.47287338693165
H            4.67310275217979        1.47372894507985       -1.57720214476428
H            6.97509885378550        1.69620989261041       -0.80804116546913
H            8.69895577911654        1.77098391964544        0.80960763571500
H            9.27031846703928        1.11940015985153       -0.75369449494139
H           10.10102028218357        0.67462023887774        0.75749708178280
H            7.19789982883318       -4.28957251801221        1.63835278210143
H            5.57079066594180       -3.58363404163321        1.79245452510376
H            6.15105072552169       -4.16637612968685        0.20389308159851
H            4.50660289908997       -2.48930494670886       -0.01626723283828
H           -0.11113039626938       -1.69063085444934       -1.66046137352735
H           -1.02161986865686       -1.21972007985132       -0.20851994418016
H            0.54228448161729       -2.03625699717629       -0.05051277649457
H           -4.80833670368120        2.76616241409109        0.36984549550264
H           -3.84053821141887        2.15757932453260        3.61132882022387
H           -4.94849764295808        0.77955532595676        3.18083843489227
H           -5.59156972266690        2.37389987990779        3.78933129586929
H           -3.53133206411436        5.08184062763282        1.15174981313708
H           -2.75143932568567        4.91593531181034       -0.44274281905429
H           -4.53028039403622        5.04047216578950       -0.32132341127476
H           -0.96755412459721        3.47039368417947        2.56383607371834
