72
 energy: 26.226647907646 xtb: 6.6.1 (8d0f1dd)
N           -1.52022076363669        3.29772552259006        1.95845025560025
C           -1.73756801354774        2.56248045043330        0.96602698955248
C           -3.09479195355182        2.42619136619406        0.32208250425981
C           -3.48662559743636        0.94457234188964        0.29205039657083
C           -4.40808464383223        0.50345415497728       -0.65751750416122
C           -4.81491451831833       -0.81585453466721       -0.69137276749572
O           -5.70712439048973       -1.34358874517450       -1.57539428949709
C           -6.32378476435538       -0.49279205458056       -2.50813363655615
C           -4.29010277248118       -1.72830943339920        0.25221436760772
O           -4.75858816097326       -3.00389839743216        0.15154547328902
C           -4.35444009695268       -3.94081479534874        1.11522651946692
C           -3.37478195567914       -1.28420793460041        1.18825645646104
C           -2.97523776492278        0.04676636477190        1.20746039321128
C           -2.92113847748433        2.89521863165017       -1.07114581269753
C           -1.00813057803241        0.22999027067883       -2.32164436325045
C            0.18993133163951        0.39978511726794       -1.76072948443041
N            0.69766982370071       -0.23981958726423       -0.65256505596378
C            2.09634399437629       -0.08740718928766       -0.34168160639254
C            3.04720026044459       -0.90314585057566       -1.25028897860439
C            4.47193125334769       -0.71641767641226       -0.81280798776434
C            5.14423114673064        0.45969144750081       -1.09058399704169
C            6.44177032580879        0.66753949792029       -0.64256571986364
C            7.09567695775466       -0.30906463272765        0.08645805395735
O            8.36289696203850       -0.21796244288045        0.58236160510500
C            9.09193649086296        0.96110621156855        0.36126627735035
C            6.43023639453526       -1.52577545066849        0.35760031811892
O            7.16112470510818       -2.43466571451887        1.06393053790703
C            6.60099974709913       -3.69186947797174        1.34085527260602
C            5.13271922193385       -1.70747162871966       -0.08689294695191
C            0.06544307420265       -1.47108740211652       -0.24994336259895
C           -4.23573045752195        3.19786635828844        1.04106076428954
C           -4.46061915836278        2.68828805552802        2.46606374116769
C           -3.99722347421526        4.70631828096120        1.07426360659583
H           -4.80138492382752        1.20786339885535       -1.37311022737909
H           -6.89408096102308        0.30122278831976       -2.01415576208890
H           -7.00672078062153       -1.12936877220444       -3.06927485509454
H           -5.59880524625676       -0.04676001312149       -3.19757122518139
H           -4.60884134170025       -3.61188569390736        2.12806422266329
H           -4.90616144469363       -4.84962958042303        0.88204126736029
H           -3.28014864616885       -4.14744985698980        1.06122598202305
H           -2.96438308962824       -1.96034255818309        1.92272623836595
H           -2.27368180069890        0.37420276883814        1.95960657657361
H           -3.72996862652847        3.35919228273695       -1.60196283386891
H           -1.96507019327429        2.83732984559839       -1.54674104172870
H           -1.68847825480586       -0.56236045863950       -2.06822960832934
H           -1.29509355045636        0.87472618615103       -3.12893471339755
H           -0.97599764128312        1.97110325846613        0.43907464148536
H            0.81517361427805        1.21815646922206       -2.09660228884453
H            2.25775338454127       -0.40142540641995        0.69487325825440
H            2.36524642964310        0.97249102044304       -0.42033515006856
H            2.92327512332636       -0.56904974412973       -2.28371351095663
H            2.77347180872997       -1.95817638826129       -1.19692305811728
H            4.66270288191823        1.23353758236281       -1.66905046283129
H            6.93335998915435        1.60002870931599       -0.87316690689190
H            8.60555986049313        1.83269045857850        0.81315373083645
H            9.24994354952563        1.14835515410256       -0.70634974776440
H           10.05593346625493        0.80128596583454        0.84337973294404
H            7.37021129574603       -4.23792092553083        1.88549668204755
H            5.70606072669597       -3.61122078210166        1.96705866087282
H            6.35461106765871       -4.23594699999254        0.42282348841569
H            4.61734015231590       -2.63295642599036        0.12163050934552
H            0.10699991419406       -2.21892648768828       -1.05005115710256
H           -0.97920569186423       -1.27696818566107       -0.01094953310145
H            0.56085453688329       -1.86609703590171        0.63403062238046
H           -5.14417685559634        3.00314424659244        0.45748955576311
H           -3.58113065077815        2.87104889518976        3.07730178018871
H           -4.68559193557848        1.62430448275070        2.47827622541722
H           -5.29997649316637        3.21390312470860        2.91407996075543
H           -3.15094550852201        4.93203247448798        1.71455726286796
H           -3.80285534670316        5.10430984731726        0.08242731705547
H           -4.87967045554057        5.20286712538450        1.47599693023559
H           -0.55032035268777        3.33824647219166        2.26849936917608
