72
 energy: -5.945552635763 xtb: 6.6.1 (8d0f1dd)
N           -1.49536124530003        2.79870902014477        2.22362263806620
C           -1.55766812164279        2.17385680697624        1.13584619777737
C           -2.75964182826823        2.07249496828491        0.24281507158155
C           -3.32359818924458        0.66066667955219        0.32515796931582
C           -4.30842957021339        0.25805813111079       -0.57949918015597
C           -4.84743651975586       -1.01268996979807       -0.53808642502570
O           -5.81439872886064       -1.48298685119442       -1.37493131291764
C           -6.39262470040299       -0.60367264952671       -2.30493701654342
C           -4.39370246496309       -1.93243344637356        0.43409148375775
O           -4.98074369824803       -3.16073052881863        0.39688258210586
C           -4.64891176131201       -4.09291397937442        1.39359803180673
C           -3.42130601353396       -1.53171159140834        1.32941654449565
C           -2.89175785415405       -0.24725086906280        1.27383014434698
C           -2.22139465366156        2.29295941419020       -1.19785766002347
C           -1.28378757669008        1.15953413644230       -1.69727323968009
C            0.00301792644336        1.10855299839306       -0.94853979115031
N            0.63344810620322       -0.05731809730963       -0.56869375495180
C            2.00444028946211       -0.03520260664561       -0.16900153291287
C            2.94080485542558       -0.55843511829354       -1.27937451650775
C            4.36484819368220       -0.44671176333467       -0.83829202834546
C            5.07936647250780        0.71845394875724       -1.04540534838141
C            6.38926753674525        0.83399745359846       -0.60481107618387
C            7.00148209787864       -0.21362644308459        0.05899643742977
O            8.27953628575311       -0.21158014684332        0.53053053632772
C            9.07004435509258        0.92984327010198        0.32176724068297
C            6.27730840230469       -1.40629123309744        0.28398702465123
O            6.96240592148432       -2.38553714160730        0.93760933676734
C            6.32951840710419       -3.61824599790693        1.16193351296226
C            4.97315289368231       -1.50340528485619       -0.15998286758449
C           -0.04673918429722       -1.31695975958541       -0.60292686829412
C           -3.88563674235023        3.08241185254824        0.60081646817513
C           -4.49373884222302        2.77086991459649        1.96784934828225
C           -3.42151557976662        4.53737811772067        0.57202745040913
H           -4.66388845101006        0.95694942504771       -1.31926628645896
H           -6.85111685665942        0.26129676664523       -1.81381445680318
H           -7.16658279288380       -1.18246095644356       -2.80687677081178
H           -5.66451422116330       -0.25822448256407       -3.04708735127447
H           -4.86964680594330       -3.71049597174462        2.39591701857499
H           -5.27309456129652       -4.96262019725645        1.19504549125880
H           -3.59480083472697       -4.38660908921596        1.34135161494451
H           -3.06559747389152       -2.20745154725316        2.09103250071712
H           -2.15084266719031        0.03870797575278        2.00446859995443
H           -3.06285694429695        2.41660706539378       -1.87874405594193
H           -1.65986609210349        3.22773617878818       -1.22362940341857
H           -1.80233043935024        0.20206505016734       -1.65143808455697
H           -1.03687188327378        1.36444181093228       -2.74457779338634
H           -0.69762094313009        1.66979886286541        0.63353782564133
H            0.65159214114157        1.96640313394978       -1.00628074266729
H            2.12965381538256       -0.65053867510126        0.72897024262733
H            2.30144646440951        0.98615312180978        0.08131562197349
H            2.77314105693946        0.03681312944248       -2.17790978338483
H            2.68512666035522       -1.59574897222351       -1.49951879961858
H            4.62309196731322        1.54637417873562       -1.56738909576924
H            6.92498949744438        1.75031972804495       -0.79333667762766
H            8.64907692963461        1.81190277639591        0.81661587281498
H            9.20323882172819        1.14099662716574       -0.74474603018274
H           10.03682417756390        0.69634690407654        0.76485819727325
H            7.07046913462471       -4.23719354188227        1.66568134122878
H            5.45076466754348       -3.51260200203327        1.80753110389859
H            6.03612482627239       -4.10020291844911        0.22304414468307
H            4.41133964276606       -2.41105459668396        0.00027381567136
H           -0.20830396534171       -1.66470504314150       -1.62862071354239
H           -1.01640330023971       -1.24365637532677       -0.10197313441012
H            0.56135306347576       -2.05184263570537       -0.07971134663599
H           -4.67012170176200        2.96097261984637       -0.15515381627678
H           -3.74757957090247        2.90010454508068        2.74531915977759
H           -4.86659823108267        1.75020204085616        2.00358654062246
H           -5.32279600324468        3.44766172929275        2.16219780740967
H           -2.62577590109471        4.69621187455535        1.29361526057467
H           -3.07442798558640        4.83042918012926       -0.41522658639635
H           -4.25439777991040        5.18457792331390        0.83800192138131
H           -0.59557749381154        2.79991228559748        2.70133839949119
