72
 energy: -4.103156313632 xtb: 6.6.1 (8d0f1dd)
N           -1.50182462085632        2.85577614708934        2.19909746873285
C           -1.57227887229830        2.21905675803379        1.11726250938327
C           -2.78649366479261        2.10055125453457        0.24252823388297
C           -3.34137357438850        0.68758801036181        0.32610163566642
C           -4.32001581307297        0.28310463204785       -0.58430045513822
C           -4.84467846695176       -0.99332277089489       -0.55306482269478
O           -5.80400558340039       -1.47041532524831       -1.39660417499963
C           -6.38528382958053       -0.59304577896224       -2.32615828488977
C           -4.38396647362128       -1.91280051205773        0.41585021809336
O           -4.95797426015544       -3.14728342798233        0.36933802121338
C           -4.61992938237311       -4.07793391534990        1.36535491510228
C           -3.41838498660639       -1.50816911895979        1.31668994807210
C           -2.90150598041984       -0.21888089379950        1.26990138950384
C           -2.27378979754870        2.28363687204581       -1.21862301033282
C           -1.32779251826444        1.11615333321131       -1.75417237772222
C           -0.00025514751793        1.06439357889092       -1.05753944443643
N            0.63193417097208       -0.08001136740150       -0.58153298700595
C            2.00962875875507       -0.04097187729074       -0.19244795212834
C            2.95406899469535       -0.59512557283369       -1.28080944590234
C            4.37755345899640       -0.47405117353131       -0.83939920989859
C            5.08768273836419        0.69287371537422       -1.05174970906211
C            6.39611710330499        0.81669577217147       -0.60870705309487
C            7.01251186852232       -0.22391225302151        0.06204524721315
O            8.28986322178277       -0.21279094668709        0.53544541805726
C            9.07337528664371        0.93335639734782        0.32571666440219
C            6.29382500621169       -1.41828743920449        0.29176813386163
O            6.98290998997981       -2.39134965504278        0.95053402862307
C            6.35635149143954       -3.62611205577503        1.17973960594562
C            4.99065452191896       -1.52355420000232       -0.15410763217167
C           -0.03773973184984       -1.34526702274075       -0.56541127726262
C           -3.91997565436537        3.09332031950091        0.63686056251278
C           -4.49251427032781        2.76145173542786        2.01602966214193
C           -3.47908582594228        4.55502973347325        0.61994903699866
H           -4.67721429577590        0.98236131772855       -1.32323962292941
H           -6.85472546340580        0.26581723992531       -1.83444514530605
H           -7.15079080850334       -1.17738433382753       -2.83488112675177
H           -5.65613812499269       -0.23715863131109       -3.06220078936718
H           -4.84404279814725       -3.69922996515324        2.36856165795678
H           -5.23603296053431       -4.95266973817270        1.16440165645443
H           -3.56321767882422       -4.36202712415035        1.31414689050465
H           -3.05548849985825       -2.18421118087830        2.07419559413812
H           -2.16164639503089        0.07242984610473        1.99899218171565
H           -3.13029675101551        2.48144234264633       -1.86183942329448
H           -1.66760811794790        3.18764415712769       -1.26945363659516
H           -1.80508684981493        0.13848418144722       -1.70118286756845
H           -1.10125691836674        1.33531184599952       -2.80146359806831
H           -0.72269680305484        1.70341195378706        0.62685197084981
H            0.65884987149642        1.91592088033919       -1.13363378300226
H            2.14967272390550       -0.62012869445037        0.72857604436370
H            2.30058720449716        0.98966988911080        0.02139465198325
H            2.78989353092876       -0.02644012288379       -2.19560021360928
H            2.69812244508498       -1.63782710654457       -1.47308191470681
H            4.62744915661660        1.51569513129907       -1.57789396391442
H            6.92824246934374        1.73405616903963       -0.80166391355908
H            8.64438600647084        1.81409591581797        0.81611901874658
H            9.20818484095239        1.14258080971670       -0.74100975943565
H           10.04065705080662        0.70784105088714        0.77186268276164
H            7.09935309538595       -4.23932134195699        1.68772130866273
H            5.47615512598342       -3.52204333672674        1.82332112738073
H            6.06697719552221       -4.11394928904063        0.24280018264891
H            4.43315862259607       -2.43288221847228        0.01227722348993
H           -0.17804328315949       -1.74930531119355       -1.57345546414837
H           -1.01605815432469       -1.24935173603056       -0.08651556420817
H            0.56236978635310       -2.05036945535591        0.00841836566730
H           -4.72225656425199        2.96980361176553       -0.09993216354151
H           -3.72952545433402        2.89468923320362        2.77660994034947
H           -4.85150050024916        1.73605593790592        2.05192085969322
H           -5.32577495738556        3.42608412059746        2.23645185720549
H           -2.67946669796980        4.71622983983536        1.33645731458344
H           -3.14509720993319        4.85926381594349       -0.36738145960030
H           -4.31787553287425        5.18929171850258        0.90038165726368
H           -0.59177319958591        2.86059401318014        2.65711765415294
