72
 energy: 25.645385787548 xtb: 6.6.1 (8d0f1dd)
N           -1.52525970303239        3.27756048317671        1.98065653411084
C           -1.74416426448571        2.55245073561863        0.98115715783300
C           -3.10222967753015        2.43326496622648        0.33160280011068
C           -3.48417821264451        0.94970876509323        0.28595436245503
C           -4.40003775585526        0.50167416947901       -0.66452151427833
C           -4.80880249130381       -0.81795792922544       -0.69138286877911
O           -5.71236585721878       -1.34515710934192       -1.56437524954732
C           -6.32743738792042       -0.49665858811528       -2.49977975986282
C           -4.28832101941877       -1.72953561607728        0.25528691427154
O           -4.76904979826956       -3.00216123600544        0.16546735984217
C           -4.36665235597670       -3.94206576808996        1.12679311335578
C           -3.37088462561872       -1.27924719674468        1.18624456170849
C           -2.97361212337841        0.05293644498809        1.20195869861036
C           -2.91621675959645        2.92372773787579       -1.05244666386663
C           -0.98173306256588        0.22126533445500       -2.34613143610259
C            0.18363136952491        0.43166311690714       -1.73394493095148
N            0.70306455222785       -0.25062449229117       -0.65926401393933
C            2.09822566774930       -0.09307710710937       -0.33708729910760
C            3.04841223667392       -0.88806763574758       -1.25733865160097
C            4.47123306367144       -0.70343815098628       -0.81683258502341
C            5.14329978878190        0.47365859198668       -1.08805541694572
C            6.44118397024015        0.67782022493108       -0.63957608579835
C            7.09254080015570       -0.30258724977163        0.08686420339065
O            8.36109630056066       -0.21641608183583        0.58027888270425
C            9.09256255237480        0.96164889997229        0.35976591311023
C            6.42395707361513       -1.51829188914595        0.35571362440655
O            7.15272641496169       -2.43294633503885        1.05649634236244
C            6.58856044974319       -3.68860298674545        1.33123594389137
C            5.12665394994800       -1.69720576361273       -0.09022263396934
C            0.06391186760639       -1.48245481361484       -0.26996323214974
C           -4.24369695660369        3.20146186116823        1.05749079920998
C           -4.47466928426973        2.69143145385670        2.47746761389196
C           -3.99509584613092        4.70904393553791        1.08399556975840
H           -4.79287627701204        1.20347535770036       -1.38173267570064
H           -6.89391695419571        0.30375016526910       -2.01172017959758
H           -7.01475669627027       -1.13147559966432       -3.05753759122269
H           -5.60203372416496       -0.05700213115359       -3.19225826162181
H           -4.61897581747759       -3.61580448339214        2.14177604571670
H           -4.92211387411795       -4.84935438167762        0.89356335451837
H           -3.29233672968489       -4.15177463210402        1.06826878669890
H           -2.96212336065512       -1.95236123742513        1.92318663898787
H           -2.27478220552901        0.38600830025125        1.95385962087360
H           -3.71714203741071        3.40844891354400       -1.57419148175705
H           -1.97581096176415        2.80837626529984       -1.55228656037087
H           -1.65027113692180       -0.58131934274112       -2.09454388879006
H           -1.30138093774942        0.89249453747083       -3.12356751890147
H           -0.97688511631358        1.96775645660364        0.45181582955666
H            0.80140546621236        1.26450987875165       -2.04434681986028
H            2.25325558027880       -0.41438093342921        0.69841102219689
H            2.35973521808016        0.96813840324526       -0.39450810272747
H            2.91681791387374       -0.53390898070380       -2.28253970218210
H            2.77624951886850       -1.94403194451810       -1.22044700159345
H            4.65872698770936        1.24705529640160       -1.66464395317643
H            6.93479747274528        1.60936934002774       -0.86843266930150
H            8.60816800119268        1.83343911468773        0.81311663529375
H            9.24910927096333        1.14935382240489       -0.70811063886326
H           10.05613555576839        0.79917562599762        0.84082624537417
H            7.35614548049396       -4.23944403106989        1.87400356913460
H            5.69423779132086       -3.60562232568507        1.95874150471563
H            6.33831637549884       -4.23120071473656        0.41303486514550
H            4.60732789726898       -2.62132392815284        0.11462798378848
H            0.08299582802446       -2.22330483846413       -1.08087625834523
H           -0.97597541360598       -1.28105929378210       -0.01100933888033
H            0.56986156978240       -1.89411743215636        0.60199017110511
H           -5.15669596498399        3.01254182240544        0.47979966450097
H           -3.59185874552729        2.87206247199857        3.08129232856301
H           -4.69971802631233        1.62758120643168        2.48386297353060
H           -5.31411607458251        3.21999860642357        2.92384606554555
H           -3.14567654408732        4.93180434242139        1.72095166746915
H           -3.78811225101619        5.08767421875927        0.08504841196371
H           -4.87072586776832        5.22182463572246        1.47545636279941
H           -0.55648967300747        3.30920625321067        2.28939685541537
