72
 energy: 27.265652558417 xtb: 6.6.1 (8d0f1dd)
N           -1.50265002740098        3.29858148225254        1.94267558011219
C           -1.71869554216913        2.54839382542540        0.96180557269110
C           -3.06420559001928        2.39401216153413        0.30414325513595
C           -3.47607985664130        0.91674084574545        0.30060118020154
C           -4.40523476399655        0.48088538095438       -0.64415049809408
C           -4.82200117535097       -0.83428907605286       -0.67496127943169
O           -5.71505055921850       -1.35820931010208       -1.55789056338570
C           -6.33004905794583       -0.50465174489949       -2.48882206605945
C           -4.30012396309698       -1.74814009920366        0.26874376562308
O           -4.76942283771332       -3.02186163991879        0.16578818522321
C           -4.38216732788637       -3.95603272128115        1.14088485479175
C           -3.37974162137160       -1.30919621032431        1.20174979969404
C           -2.96998384049300        0.01880800938060        1.21745865678233
C           -2.88871721581594        2.82335655281065       -1.10225107946283
C           -1.06549327675248        0.29853332455902       -2.26502342359313
C            0.15023709637714        0.43833587823889       -1.74438490683815
N            0.67973365963165       -0.21720357598793       -0.65002340972017
C            2.08572629651291       -0.07494124166308       -0.35872117906895
C            3.03921669427184       -0.88455407491996       -1.26255255876021
C            4.46378834492011       -0.69247289236902       -0.81396350553955
C            5.14106476281957        0.48240299032569       -1.08629837824010
C            6.44208664473310        0.67628237354353       -0.64116302230645
C            7.09455635261281       -0.30252124563883        0.08522001314354
O            8.35900081053494       -0.21336047519521        0.58455179993678
C            9.09292629032246        0.96354616593960        0.35997674309507
C            6.42003212585825       -1.51487079366617        0.35207037218604
O            7.14380727894957       -2.42983003775376        1.05573870441646
C            6.57394207993484       -3.68472139947755        1.32484613177777
C            5.12147904858450       -1.68819357239797       -0.09380094035365
C            0.05949008588950       -1.45936132031380       -0.24973844089265
C           -4.20509091270534        3.18857012466697        0.99367510217055
C           -4.46203436945519        2.69286006704246        2.41647216746119
C           -3.94170820693378        4.69166267430330        1.02027974823025
H           -4.79144339991273        1.18588435783698       -1.36197075547586
H           -6.88930662016437        0.29681674493521       -1.99430105346375
H           -7.02302592334371       -1.13555928346399       -3.04402166299261
H           -5.60313169294663       -0.06850964725704       -3.18250201392043
H           -4.63375977270308       -3.61941780089067        2.15228793045513
H           -4.94011500496566       -4.86269026803488        0.91404715430346
H           -3.31025540261697       -4.17140673754164        1.09033020762286
H           -2.97241705287831       -1.98583426158652        1.93761750676090
H           -2.26033485957687        0.34209186709314        1.96358987932996
H           -3.69680805446435        3.26055732420722       -1.65005392254878
H           -1.92223563626246        2.89099084064378       -1.54300495457116
H           -1.73845572131630       -0.50306074682938       -2.02859716248873
H           -1.35343346318381        0.92068070149046       -3.09112425730241
H           -0.94688998539509        1.94545291799018        0.46368883356552
H            0.75600390959999        1.28515976771811       -2.05973896321023
H            2.24811468823228       -0.37536338693527        0.68288212726553
H            2.34814732556419        0.98310182134874       -0.44566843932749
H            2.92698049974735       -0.54387228914338       -2.29452090153103
H            2.77577729005820       -1.94160270216773       -1.22477602852549
H            4.66258187179335        1.26347819103077       -1.65911609228546
H            6.93714686810458        1.60632398158641       -0.86879935234506
H            8.60924114348683        1.83605490969715        0.81278945477913
H            9.24903937672169        1.14815931317903       -0.70819007761901
H           10.05823612631928        0.79516141130162        0.83474414629143
H            7.33877288319013       -4.24065411767350        1.86538751661720
H            5.68192548667443       -3.60010100588852        1.95439393067280
H            6.32187486335631       -4.22148286887633        0.40405918894001
H            4.60304674319808       -2.61302069397603        0.10949585002635
H            0.11362243584787       -2.25314671553336       -1.00458676232471
H           -0.98816510071956       -1.27952077765991       -0.01830224264239
H            0.55017700968065       -1.81726556517371        0.65243847717267
H           -5.10272942535616        3.00162246259066        0.39336646210550
H           -3.59188918960578        2.86954753423930        3.04272508715568
H           -4.70485524692724        1.63327622689130        2.43178967643849
H           -5.30289574440896        3.23558470113866        2.83934092234428
H           -3.10018153424005        4.90542535386412        1.67090759410267
H           -3.72930937351419        5.08415402173273        0.02943756589062
H           -4.82103992998880        5.20091483067891        1.41007946643220
H           -0.54800074763348        3.33712121570107        2.29555549072415
