72
 energy: 27.622150729656 xtb: 6.6.1 (8d0f1dd)
N           -1.50522820857173        3.27177117738102        1.95762578261526
C           -1.71401577273330        2.52612501914399        0.97172139586810
C           -3.04936986653981        2.37520836841450        0.29882289723613
C           -3.47032024871276        0.90168902747013        0.30371981385375
C           -4.40146707399052        0.46845884692243       -0.63981733928733
C           -4.82380530507660       -0.84462493532646       -0.66759840548026
O           -5.72135852963328       -1.36548382708640       -1.54791116614401
C           -6.33380426378930       -0.51036927760668       -2.47892821138718
C           -4.30550735825201       -1.75845776977061        0.27786917685139
O           -4.78185093801310       -3.02946316737052        0.17911649525279
C           -4.39700060996329       -3.96313062298498        1.15537839640088
C           -3.38263169020145       -1.32184112911853        1.20933842644229
C           -2.96729435032459        0.00416205287347        1.22217615907495
C           -2.86374295037606        2.78744973849088       -1.11190321987809
C           -1.08824743470677        0.33718523782816       -2.23276261674501
C            0.12915507595713        0.47678534492695       -1.71526409617426
N            0.67385311082355       -0.21951675480402       -0.65969855914193
C            2.07863798433424       -0.07395679116963       -0.36357696901554
C            3.03694815025307       -0.86762094461308       -1.26959365995563
C            4.46067907414525       -0.67878852721008       -0.81854944217988
C            5.13965588408378        0.49602521422904       -1.08568886746298
C            6.44073618855469        0.68559631824131       -0.63913210934651
C            7.09024999193537       -0.29697641404575        0.08461747555931
O            8.35544098921659       -0.21312853546052        0.58162479796874
C            9.09264756928614        0.96222663768841        0.35821884037745
C            6.41268660906635       -1.50810955511006        0.34902601734781
O            7.13395718742036       -2.42733754848094        1.04959865554003
C            6.56034015246888       -3.68091588498545        1.31625739453681
C            5.11436273676080       -1.67749764007133       -0.09872754180965
C            0.04992207530832       -1.46422508795391       -0.26912785231170
C           -4.19053944664343        3.18359859252070        0.97086867066797
C           -4.46566597559181        2.69673561427772        2.39240627686950
C           -3.91379436511441        4.68388476486194        0.99468179856326
H           -4.78407424579101        1.17321978459557       -1.35979108171500
H           -6.88721828703637        0.29526122184873       -1.98449326478351
H           -7.03186263487348       -1.13822980776880       -3.03133934285145
H           -5.60628519669796       -0.07937809283065       -3.17516252187824
H           -4.64619136342718       -3.62377385573970        2.16652079709266
H           -4.95788050052332       -4.86848625400115        0.93082702038951
H           -3.32590985854942       -4.18246583710608        1.10452261599555
H           -2.97739907845657       -1.99847734934724        1.94616200162799
H           -2.25354081771714        0.32561634948959        1.96504518878102
H           -3.67092906822369        3.21224667620658       -1.66800605762604
H           -1.89807027301446        2.91300850858877       -1.53544092558762
H           -1.76019389183576       -0.47015564846889       -2.01026588310969
H           -1.36150894532294        0.95532991912855       -3.06232286621312
H           -0.93371893822407        1.93432061278696        0.47184381514572
H            0.74244521013510        1.32539862718395       -2.00153477206988
H            2.23556937837125       -0.38138267893699        0.67435154080990
H            2.33916348188316        0.98565111189334       -0.42337709321849
H            2.92096743545867       -0.51157845034157       -2.29471197469225
H            2.77428445967685       -1.92507576654581       -1.24387885948440
H            4.66098756543281        1.27954098677561       -1.65487979248799
H            6.93802597645718        1.61468421365445       -0.86448726650806
H            8.61145564331492        1.83469617995562        0.81371373060630
H            9.24647577821961        1.14825619144907       -0.71009477157569
H           10.05841780043819        0.79012105221753        0.83028262821985
H            7.32340412265306       -4.24124886496795        1.85497860359678
H            5.66913190290791       -3.59478857701504        1.94666789544859
H            6.30566668237714       -4.21477552589145        0.39457830737325
H            4.59300348104328       -2.60115777342778        0.10300211342325
H            0.08543499509473       -2.24439703781634       -1.04273825749341
H           -0.99106825929270       -1.27974449377069       -0.01326573354970
H            0.55349790152435       -1.84021433312655        0.61876720402880
H           -5.08236254030850        3.00220190034406        0.36087449674039
H           -3.60010902537514        2.87001557203666        3.02590689793363
H           -4.71559130883722        1.63902846306842        2.40897295491579
H           -5.30723124321059        3.24800036659925        2.80289733747294
H           -3.07491975757495        4.89208494906678        1.65047202632627
H           -3.69240740483414        5.07115250995949        0.00398619279765
H           -4.79068814122424        5.20209536741588        1.37768382006140
H           -0.55412118595246        3.30555829338839        2.31852944029807
