72
 energy: -1.827907098649 xtb: 6.6.1 (8d0f1dd)
N           -1.50546759679527        2.88514507015953        2.18819548476250
C           -1.58088312966060        2.24335697947161        1.10897386694523
C           -2.80055979634415        2.11616097766991        0.24298497806660
C           -3.34976294881477        0.70143727109430        0.32643001861710
C           -4.32528537829290        0.29572063757042       -0.58682432426337
C           -4.84324334491593       -0.98334097981032       -0.56039749631257
O           -5.79917655724936       -1.46365417909095       -1.40688169269535
C           -6.38252492014455       -0.58739917059619       -2.33592621589295
C           -4.37944066051467       -1.90279444023099        0.40687981401287
O           -4.94688647746142       -3.14033657993621        0.35540156833839
C           -4.60564499753079       -4.07064015335989        1.35061333037747
C           -3.41732600700665       -1.49644012366198        1.31052465936598
C           -2.90660338850206       -0.20479242299864        1.26819877801623
C           -2.30079523539854        2.28422161148284       -1.22751858226933
C           -1.34895571200276        1.09196643607020       -1.78077574665095
C           -0.00110355463766        1.03897970869656       -1.11317024566437
N            0.63204744616508       -0.09224354242871       -0.59039724917463
C            2.01234676983213       -0.04363992466446       -0.20490900806543
C            2.96063106456033       -0.61324202910782       -1.28155160870418
C            4.38371395470767       -0.48766242870299       -0.83958777289112
C            5.09171409037916        0.68008795622700       -1.05476107810301
C            6.39943468641130        0.80817519400069       -0.61064954596446
C            7.01781819000773       -0.22890032499015        0.06359567013087
O            8.29474670627562       -0.21335783899710        0.53817388047816
C            9.07532871008649        0.93474338908910        0.32802895292624
C            6.30193374400241       -1.42413700227899        0.29558528009544
O            6.99321557920731       -2.39391430235846        0.95697741204677
C            6.37034544289495       -3.62990681202090        1.18863504276185
C            4.99922292229082       -1.53363377341948       -0.15113111981455
C           -0.03306987074890       -1.35892231441553       -0.54664060897815
C           -3.93805913361770        3.09898377982102        0.65513280044811
C           -4.49128904952998        2.75650105116764        2.04020494502620
C           -3.50810401328893        4.56373001559960        0.64341439375076
H           -4.68291401799083        0.99498327629399       -1.32566396251417
H           -6.85708085961267        0.26836983563448       -1.84360440058793
H           -7.14424275632736       -1.17449969360789       -2.84732158452366
H           -5.65343129486433       -0.22652525872218       -3.06951792206174
H           -4.83089756266663       -3.69406727244834        2.35447126176568
H           -5.21814457241531       -4.94754253198111        1.14847909905355
H           -3.54783916971165       -4.35055564597999        1.29947171837448
H           -3.05083230411824       -2.17307552053801        2.06566759998263
H           -2.16737007937547        0.08819059160140        1.99704912526514
H           -3.16233816533772        2.51497940797327       -1.85413911168137
H           -1.67108010691504        3.16939535365263       -1.29556925460721
H           -1.80772775961934        0.10524893803933       -1.72782891775482
H           -1.13496410206378        1.32129336554967       -2.82724100391793
H           -0.73647161299260        1.72215962735103        0.62351549519857
H            0.66427034677529        1.88683102930015       -1.19706987249919
H            2.15856296070070       -0.60372499225828        0.72768249360724
H            2.30060186040841        0.99118207976758       -0.00933610971025
H            2.79838919494656       -0.05784729911021       -2.20429875101111
H            2.70367929809124       -1.65815984914738       -1.45955268566284
H            4.62966806363425        1.50035247554760       -1.58322240240897
H            6.92952457203929        1.72629830268275       -0.80526111484941
H            8.64313169917422        1.81518064269124        0.81622394199285
H            9.21129170676347        1.14287982940724       -0.73877966491843
H           10.04269585780114        0.71252061146830        0.77560441503675
H            7.11476970291230       -4.23987603533095        1.69853244532084
H            5.48950464397207       -3.52716106533547        1.83143337279441
H            6.08321325667232       -4.12069365640546        0.25260572838468
H            4.44388404589552       -2.44382184639666        0.01824075350198
H           -0.16357155699813       -1.79147215311879       -1.54449802541882
H           -1.01511403356107       -1.25139348763612       -0.07818071595296
H            0.56343047631492       -2.04740597419737        0.05202419751204
H           -4.74857206956163        2.97308378908698       -0.07231928022903
H           -3.71953970489075        2.89223532720713        2.79165509573594
H           -4.84328872926875        1.72871858021695        2.07605995066906
H           -5.32631816328913        3.41483390164572        2.27407937743489
H           -2.70629906452225        4.72577909030997        1.35721044701202
H           -3.18074557900927        4.87352311314198       -0.34398520166803
H           -4.34952766903158        5.19153923332737        0.93094674692858
H           -0.58999307191536        2.88948331559613        2.63583280159923
