72
 energy: 5.491956414728 xtb: 6.6.1 (8d0f1dd)
N           -1.51108450878482        2.94279170176146        2.16549484299782
C           -1.59826304564219        2.28967839009960        1.09310084792065
C           -2.82918864512467        2.14844322616672        0.24558426654704
C           -3.36623170278761        0.72946060184660        0.32620405343132
C           -4.33544274740646        0.32065852885026       -0.59246031807330
C           -4.83927815262967       -0.96386215364707       -0.57543556498877
O           -5.78799976669753       -1.45086420002431       -1.42778683712859
C           -6.37515549866425       -0.57736748504755       -2.35663065704993
C           -4.36881414533464       -1.88286656108510        0.38883101108686
O           -4.92339219721252       -3.12628683643835        0.32890174776921
C           -4.57610014260905       -4.05525688725392        1.32318917127843
C           -3.41322076952601       -1.47257721904424        1.29747318494915
C           -2.91549317026410       -0.17601612954462        1.26365542137756
C           -2.35553320515023        2.29588317368803       -1.23809811306306
C           -1.37503366378133        1.03647555395608       -1.83314479099682
C            0.00052101376071        0.98304443632717       -1.22311085996749
N            0.63380574272927       -0.11756379719599       -0.61344350370102
C            2.01755761018875       -0.04880917613110       -0.23062968869876
C            2.97319186933417       -0.64962080860773       -1.28286774193719
C            4.39556143318671       -0.51520257311339       -0.83972771933447
C            5.09928858043298        0.65399576432461       -1.06102498453191
C            6.40568765334943        0.79050756147648       -0.61505634763707
C            7.02783054915438       -0.23936373841365        0.06653153818688
O            8.30374162535475       -0.21469481296665        0.54360035591531
C            9.07773820921344        0.93773996782647        0.33238767662819
C            6.31743277870890       -1.43637390037197        0.30325541247190
O            7.01289929940565       -2.39946442390525        0.97019561612455
C            6.39727374791838       -3.63782023731366        1.20731116818898
C            5.01561286946687       -1.55417588870032       -0.14512250324251
C           -0.02384171547910       -1.38510948834848       -0.51103565719193
C           -3.97393580808097        3.11098008514962        0.69377159813191
C           -4.49008100123863        2.74691326305131        2.08886772214111
C           -3.56656061060741        4.58192404355668        0.69198045331129
H           -4.69475123768881        1.01993533123803       -1.33059692621142
H           -6.86064386173623        0.27213919931315       -1.86386937693354
H           -7.12859883019380       -1.17036266867492       -2.87380618395687
H           -5.64584239486455       -0.20652762414047       -3.08492018607488
H           -4.80443747956143       -3.68260733976378        2.32799991226715
H           -5.18085661516337       -4.93689031632276        1.11889649634005
H           -3.51600701512287       -4.32639931300727        1.27295804352145
H           -3.03984376184743       -2.14967556693669        2.04868622831733
H           -2.17804697452807        0.12121381896448        1.99232149634303
H           -3.22562035026074        2.58632264854325       -1.83291092723147
H           -1.67725548739364        3.13561735749215       -1.34367028995949
H           -1.80929785984610        0.03924439372994       -1.77967405927477
H           -1.19709277289343        1.29169653783346       -2.87816410019532
H           -0.76334577364959        1.75683303476759        0.61713948474679
H            0.67469178276867        1.82674046028618       -1.32330553243988
H            2.17459718789152       -0.57055615157640        0.72367140850673
H            2.30016884171912        0.99351388209565       -0.07098265911653
H            2.81511221747290       -0.12126381717269       -2.22149287617430
H            2.71442201131265       -1.69862265359388       -1.43195253654446
H            4.63391014468614        1.46894523014877       -1.59473227021218
H            6.93185890486806        1.70989035540911       -0.81385184444019
H            8.63817206135197        1.81730680399003        0.81569001714216
H            9.21598538677217        1.14331703251324       -0.73466077525562
H           10.04525767301991        0.72305836535145        0.78325306815318
H            7.14436419583671       -4.24097300135307        1.72162617416724
H            5.51498444869967       -3.53729724385550        1.84826874619927
H            6.11475363380573       -4.13516326707143        0.27343302714761
H            4.46449452806498       -2.46602443773701        0.02978012877435
H           -0.13507990491527       -1.87260338335911       -1.48670008311020
H           -1.01308590840085       -1.25624323135035       -0.06394442405577
H            0.56382562513338       -2.04005836892547        0.13538729636695
H           -4.80002806067957        2.98025484405257       -0.01534573847449
H           -3.70281623046917        2.88724545133394        2.82363239091819
H           -4.82808619151969        1.71443444166134        2.12367550698722
H           -5.32851951040318        3.39206177512607        2.34850302315084
H           -2.76047535572049        4.74714164581209        1.40006876684046
H           -3.25241806741940        4.90307890119827       -0.29549917167188
H           -4.41364432852007        5.19609465398397        0.99310255760547
H           -0.58464178307154        2.94551409765402        2.59098589795927
