72
 energy: 26.867327876950 xtb: 6.6.1 (8d0f1dd)
N           -1.51341723908483        3.31432879307878        1.94094468913975
C           -1.72837110149441        2.56051415450362        0.96182669134163
C           -3.07947503459144        2.41001776628634        0.31279484004796
C           -3.48224779355133        0.93077801617069        0.29749424727736
C           -4.40875502304301        0.49277812417261       -0.64883385714409
C           -4.81946363464014       -0.82466299957142       -0.68303858042014
O           -5.70922627956542       -1.35118902640626       -1.56859349088559
C           -6.32627773582644       -0.49817779357576       -2.49882790260443
C           -4.29472395534352       -1.73835234732467        0.25944926242362
O           -4.75683623045308       -3.01458733433908        0.15226839939127
C           -4.36731116507349       -3.94996284080842        1.12560733209679
C           -3.37785093201653       -1.29691787645165        1.19476614716213
C           -2.97368827154413        0.03279102697279        1.21344980324545
C           -2.90555277996148        2.85819690427498       -1.08869066023359
C           -1.03773210116762        0.26324121485427       -2.29789509147843
C            0.17222319938034        0.39973234498210       -1.76064659837351
N            0.68776691147756       -0.22965835745905       -0.64897884319875
C            2.09196925934236       -0.08041521906458       -0.35213387324218
C            3.04416711854380       -0.90093418383079       -1.25581882943346
C            4.46810469097471       -0.70673318121388       -0.81137993610371
C            5.14259302199904        0.46888790021992       -1.08788381614006
C            6.44337906130078        0.66674349655962       -0.64388913687027
C            7.09745349971083       -0.30897453372151        0.08527407484787
O            8.36212228189413       -0.21591522656699        0.58533376771360
C            9.09265306618335        0.96227531045686        0.36076497205315
C            6.42667574284588       -1.52246788356163        0.35510643355833
O            7.15351435014486       -2.43322141510031        1.06116059779352
C            6.58811462918587       -3.68946725322738        1.33308964401136
C            5.12796071620176       -1.69905999730089       -0.08859681144592
C            0.06774518863809       -1.46470701745686       -0.23762683897268
C           -4.21947972451056        3.19289623833986        1.01711520351346
C           -4.45901001000530        2.68935363585975        2.44131449448812
C           -3.96929089502647        4.69921821054049        1.04595572536488
H           -4.79875683979368        1.19808113559674       -1.36446078711709
H           -6.89090363491212        0.29919943131059       -2.00376295170259
H           -7.01462679645877       -1.13124077229527       -3.05738137694652
H           -5.59960325425620       -0.05675808117919       -3.18949997699591
H           -4.62134771992094       -3.61625243683002        2.13733560220171
H           -4.92246368313207       -4.85789870395728        0.89616715723426
H           -3.29451399310143       -4.16131298305148        1.07537748846443
H           -2.96820410593001       -1.97414391812024        1.92873044736275
H           -2.26842236325772        0.35813841877969        1.96303517098438
H           -3.71530645120567        3.30738486056331       -1.62867438614258
H           -1.93712624173066        2.85823781459761       -1.54289864187251
H           -1.71514436478538       -0.53139421517224       -2.04884288784954
H           -1.32075230973762        0.90144409101705       -3.11495187201446
H           -0.96201500124568        1.95715804114713        0.45865494931795
H            0.78103688075252        1.23883543196614       -2.07918524303045
H            2.25769498265665       -0.38119283551854        0.68913422069904
H            2.35710177637205        0.97791797399943       -0.44666459076569
H            2.93351916552124       -0.57527176266597       -2.29296804797402
H            2.77727725723043       -1.95745553944590       -1.20639400251210
H            4.66361530941960        1.24712743617495       -1.66416599913163
H            6.93670556837854        1.59740083772550       -0.87419013923153
H            8.60709537163053        1.83496288625361        0.81150154513890
H            9.25116079278121        1.14688468224056       -0.70710034526144
H           10.05738182841350        0.79879711022600        0.83909660306033
H            7.35532760905157       -4.24020630682973        1.87537878094822
H            5.69539168962572       -3.60649506548848        1.96188650167015
H            6.33869786410770       -4.22953525931287        0.41344826120101
H            4.61225224364910       -2.62507978491944        0.11577881280164
H            0.12774523901008       -2.23545894904511       -1.01299183873480
H           -0.98198452617181       -1.28042848766980       -0.01580329093406
H            0.55265489831830       -1.83624815056453        0.66439312342892
H           -5.12275087805185        3.00122531917506        0.42568552703679
H           -3.58297895187144        2.86806457379925        3.05940458882952
H           -4.69370683439388        1.62749279048339        2.45483768480690
H           -5.29958111347280        3.22410955320354        2.87611848814350
H           -3.12518083657547        4.91962373121352        1.69119491388797
H           -3.76691180668318        5.09764512728589        0.05503812039724
H           -4.85117852951269        5.19963707980235        1.44249128395381
H           -0.55099588209619        3.35983426254630        2.27678895991991
