72
 energy: 31.447151951859 xtb: 6.6.1 (8d0f1dd)
N           -1.52410599775457        3.06027876670191        2.11446294691281
C           -1.64346240864231        2.38192495390411        1.06125587441721
C           -2.90380466286780        2.22749101746234        0.26513049082171
C           -3.40187523075061        0.78870340299985        0.32154971963547
C           -4.35792772774079        0.37106353713606       -0.60596804658386
C           -4.83286165803695       -0.92396068029199       -0.60579465047011
O           -5.76759418446263       -1.42306914888259       -1.46887718458142
C           -6.36105480635193       -0.55438365328314       -2.39768921551893
C           -4.34829724045838       -1.84144525434476        0.35245595646813
O           -4.87727962872313       -3.09633344800408        0.27715741542372
C           -4.51719960197827       -4.02480875309297        1.26667469142800
C           -3.40455103815548       -1.42271639819753        1.26957060906875
C           -2.93481720563573       -0.11548270476974        1.25179215290706
C           -2.55591267461276        2.45822331246347       -1.19267953345180
C           -1.24731873548730        0.77534155509092       -1.98031786706833
C            0.03440208366101        0.80640176630625       -1.43579531725219
N            0.65298018375731       -0.17922551866894       -0.68001968384663
C            2.03559822838164       -0.06067033046588       -0.28282071934826
C            2.99961966052626       -0.72269442184522       -1.28385785469087
C            4.42128729606092       -0.56984894482389       -0.83713495485965
C            5.11492658683012        0.60219344498524       -1.07131777507776
C            6.41915421115750        0.75627467972872       -0.62278237940393
C            7.04932407500787       -0.25873863070155        0.07334715813153
O            8.32198542642763       -0.21576491120781        0.55474835611801
C            9.08332314912513        0.94529406043739        0.34127265145864
C            6.35015063889987       -1.46026650785183        0.31906044756041
O            7.05321731652702       -2.40943435889781        0.99641104052704
C            6.45165618197184       -3.65264975692656        1.24383084030282
C            5.04996847876427       -1.59523838173691       -0.13217404306696
C           -0.00074436915926       -1.43549064247690       -0.43559027189672
C           -4.05393403901958        3.13819607154278        0.78741562402491
C           -4.48801843070500        2.73000875067366        2.19333698270236
C           -3.68411493997427        4.61806913890635        0.79238586487270
H           -4.72261483322847        1.07132593199601       -1.34002655446558
H           -6.86867317423195        0.28167751313805       -1.90397027016224
H           -7.09720005768521       -1.15812596622894       -2.92785938440830
H           -5.63077194736673       -0.16330102713037       -3.11406232237989
H           -4.75169904975552       -3.66315191736639        2.27427022480538
H           -5.10586366661446       -4.91579835275865        1.05657639948792
H           -3.45267295660907       -4.27834966814332        1.21712375127088
H           -3.01959932568817       -2.09989227182240        2.01543160593545
H           -2.20316068148120        0.18961109568740        1.98337515723524
H           -3.39704632686585        2.79522626892414       -1.77204453595947
H           -1.72125774384695        3.07577310661825       -1.42306093501735
H           -1.79392968761289       -0.14108375091322       -1.87949550165289
H           -1.30997202111047        1.23016832503856       -2.95241100204070
H           -0.82286046981302        1.82773264244826        0.59624890811094
H            0.69669173193222        1.67205226502871       -1.56917098956133
H            2.19880719336262       -0.50604212573709        0.70571438595278
H            2.30401899516608        0.99275555882498       -0.19161734329011
H            2.85153587956276       -0.25013343101122       -2.25314407173371
H            2.73825876715733       -1.77796318064804       -1.37550928433139
H            4.64290637021808        1.40623186038521       -1.61592017968506
H            6.93603243319560        1.67863234228461       -0.83018010358689
H            8.62919015242504        1.82271291714008        0.81497582301982
H            9.22600601605278        1.14517743339790       -0.72629044635077
H           10.05090640569994        0.74545181556425        0.79844328365310
H            7.20366671703316       -4.24239803913294        1.76677061164618
H            5.56642345656403       -3.55646578485079        1.88100838341815
H            6.17847171087580       -4.16226174219950        0.31397930003982
H            4.50776444885721       -2.51066053290563        0.05274310404124
H           -0.07812172086859       -2.02781831196994       -1.35437486698665
H           -1.00175380957831       -1.26684194693085       -0.03540324510327
H            0.56391477718079       -2.01064108836120        0.30393858655297
H           -4.90078599454677        2.99242277756680        0.10636393116082
H           -3.66851931835727        2.87882934844298        2.89085530106836
H           -4.79623164473589        1.68813864367964        2.22107802324254
H           -5.32897596342665        3.34745148240706        2.50355437898575
H           -2.86591552079090        4.79146598392636        1.48398318464497
H           -3.39836855306366        4.95863697847449       -0.19716715059078
H           -4.54035924121940        5.20466539815231        1.12049941870710
H           -0.57814247468546        3.06188146297494        2.49555893536083
