72
 energy: 25.537044743024 xtb: 6.6.1 (8d0f1dd)
N           -1.51957153938916        3.28505172617660        1.97529168144649
C           -1.74111932209423        2.55815354833991        0.97828013464213
C           -3.10050408144795        2.43777154911920        0.32954577280949
C           -3.47898683409157        0.95120286266111        0.28136079388761
C           -4.39708180720452        0.50081073797649       -0.66652002515330
C           -4.80928317238412       -0.81843179886070       -0.68956453834810
O           -5.71018062107589       -1.34728499343190       -1.56320438915191
C           -6.32867672819314       -0.49985605761745       -2.49756036563525
C           -4.29013056407503       -1.72930889909401        0.25910737274984
O           -4.76698345267717       -3.00257682714297        0.16749512677657
C           -4.37178866130535       -3.94299649839114        1.13280638110438
C           -3.37246525544461       -1.27755486020704        1.18913767878685
C           -2.97065051620840        0.05360277647161        1.19941521301689
C           -2.91089646824088        2.94553663959677       -1.04870194082554
C           -0.97862013418901        0.23899777634831       -2.34077191811445
C            0.18172453664979        0.45414716853806       -1.72420658996841
N            0.70680565579025       -0.25827553294612       -0.67254734949374
C            2.09853473264454       -0.09480087796380       -0.34536911624150
C            3.05522393392039       -0.89221318264840       -1.25910515054266
C            4.47707008785300       -0.70378445110985       -0.81906575680058
C            5.14728371036379        0.47499382899967       -1.08977237573500
C            6.44440498033887        0.67794290245328       -0.63933920670083
C            7.09538033576501       -0.30243349516644        0.08745359050766
O            8.36161595016246       -0.21448246864167        0.58338695475919
C            9.09421605647435        0.96262720630875        0.36017726399939
C            6.42658768739569       -1.51798340332908        0.35699910323680
O            7.15241269122155       -2.43167073139887        1.06051972014329
C            6.58483449046646       -3.68699435506133        1.33176061411978
C            5.13024035364222       -1.69659322183904       -0.09053719773315
C            0.06586373219770       -1.48586569327920       -0.27025565568606
C           -4.24483540912407        3.20372582533268        1.05095703400364
C           -4.48041890412822        2.69576330230052        2.47113313794306
C           -3.98494867321949        4.70895692535648        1.07355819190816
H           -4.79060936970323        1.20123145581402       -1.38515375615146
H           -6.89248145160564        0.30076220962047       -2.00682471728562
H           -7.01785307015663       -1.13569339146507       -3.05194004548416
H           -5.60401410251009       -0.06174855041705       -3.19192763004267
H           -4.62424841233121       -3.61448882316976        2.14667947062745
H           -4.93017460382604       -4.84872971280737        0.89989932013549
H           -3.29866954889689       -4.15685471577191        1.07743927848512
H           -2.96546673170868       -1.94985063676835        1.92838882059728
H           -2.27006422473844        0.38348718960224        1.95116559557661
H           -3.71758495992509        3.41294886591139       -1.58015071306710
H           -1.98059109401214        2.78010433825048       -1.55865673924064
H           -1.63348505418731       -0.57860427908098       -2.10293827088880
H           -1.32074945770393        0.91576353422079       -3.10331591178140
H           -0.97670901248529        1.96733656051812        0.45207458680363
H            0.79355697105886        1.30051897814959       -2.01464127785448
H            2.25066087085387       -0.41034278790459        0.69228513455707
H            2.35185680932410        0.96772770855133       -0.41014948928610
H            2.92598396293207       -0.54097210507417       -2.28539564807449
H            2.78454078169826       -1.94868603556621       -1.22165651757963
H            4.66294975938778        1.25082672876007       -1.66395707082156
H            6.93814251120038        1.60956130193866       -0.86700176947611
H            8.61011333891800        1.83477437061002        0.81298542837873
H            9.24981076981373        1.14809791382106       -0.70802765866827
H           10.05820041471983        0.79829234089528        0.83977051033915
H            7.35107191580146       -4.23982501332972        1.87366813417388
H            5.69082206765023       -3.60295199218966        1.95915521391488
H            6.33380966189787       -4.22635216838562        0.41195371829006
H            4.60883436891235       -2.61935633663571        0.11433779271036
H            0.08799785640189       -2.25093224878689       -1.05661965373680
H           -0.97621589094809       -1.27986097358107       -0.01901125765014
H            0.56575850831089       -1.87788099933840        0.61505560650112
H           -5.15346630492603        3.01673308209663        0.46475835033726
H           -3.59787101324481        2.87336387963151        3.07801655058389
H           -4.70600846338892        1.63175197459479        2.47662191419738
H           -5.32030995984261        3.22575826836973        2.91562242669628
H           -3.13432304041787        4.92552871665541        1.71133482332594
H           -3.77238180356010        5.08253709822809        0.07454094771528
H           -4.85805180873009        5.23001648851623        1.46035444172691
H           -0.55593878755747        3.31912117461520        2.30188219982432
