72
 energy: 30.656541829067 xtb: 6.6.1 (8d0f1dd)
N           -1.52572549342731        3.17364000763226        2.04340557476972
C           -1.68647038582824        2.45834915643659        1.02403555633994
C           -2.98163883041464        2.30257079669789        0.28451261980530
C           -3.43823655831417        0.84449581169100        0.31436164276063
C           -4.38010083867866        0.41981018170766       -0.62284601009872
C           -4.82772999249862       -0.88454292571659       -0.63710160982352
O           -5.74552560763549       -1.39388626140850       -1.50831249951768
C           -6.34736829507457       -0.53168820084639       -2.43833284079353
C           -4.32666963884561       -1.79976284905956        0.31554901148676
O           -4.83054269568540       -3.06199272628714        0.22867531009587
C           -4.45756929049636       -3.99348499241211        1.21092610316829
C           -3.39436102446057       -1.37193090512610        1.24097407118560
C           -2.95299866892763       -0.05497298402251        1.23936818634017
C           -2.74262793449362        2.64082782806902       -1.14310064172355
C           -1.15701901905244        0.53426191612495       -2.12309008686984
C            0.06961987684263        0.64315311555026       -1.59283104384512
N            0.65610368640491       -0.21743804495430       -0.70416746538911
C            2.04597551911102       -0.06760552524181       -0.33655983956857
C            3.02171809414067       -0.79515949631845       -1.28069191187722
C            4.44319265206091       -0.62416817499178       -0.83089454321065
C            5.12937132489304        0.54976276832034       -1.07989325747141
C            6.43157778462959        0.72155417355363       -0.63076187608068
C            7.07073642076355       -0.27770429500779        0.07974770926704
O            8.34160732778206       -0.21647596113923        0.56582309583148
C            9.08906078734338        0.95298678451556        0.34957470548031
C            6.38211895737398       -1.48367902422162        0.33456237282204
O            7.09401284105504       -2.41920367356714        1.02285222809387
C            6.50630398872232       -3.66700886873857        1.28012270134190
C            5.08340340758667       -1.63613249593869       -0.11707931152220
C            0.02127001423948       -1.46522588945139       -0.35926301989212
C           -4.12808247386118        3.16208530748472        0.88118122780784
C           -4.48008647182693        2.71225512802251        2.29521275526466
C           -3.80026119552735        4.65177752451368        0.89334301348119
H           -4.75226671570377        1.12217266664371       -1.35091446944389
H           -6.87744644485740        0.28989564597223       -1.94405740996121
H           -7.06534803374365       -1.14681133227874       -2.98002658222618
H           -5.61789175694936       -0.12101260012690       -3.14446702134975
H           -4.69862530980651       -3.64362628669886        2.22084496729318
H           -5.03154811146807       -4.89228761767810        0.99383633002639
H           -3.38963098652589       -4.22993030951971        1.16041139833825
H           -2.99846326324355       -2.04873208963529        1.98189828225931
H           -2.22756235389259        0.25853920811873        1.97368513031761
H           -3.55381424633354        3.01739288602632       -1.71794851182040
H           -1.81610524961243        3.00109772306810       -1.48595956606071
H           -1.78682231807157       -0.31275607161456       -1.94361918630931
H           -1.40279098525596        1.11343105803330       -2.99544017054344
H           -0.88103808539432        1.88920468162674        0.54715183742687
H            0.71635641173918        1.50469284600368       -1.79777288585403
H            2.19806215265157       -0.43903597349530        0.68080825874759
H            2.31116993612119        0.98950322078880       -0.31206711865549
H            2.88830795458640       -0.38043474757039       -2.27868904455613
H            2.76018268600532       -1.85360917024747       -1.31355219185829
H            4.65194572196555        1.34324041986180       -1.63574093991182
H            6.93837257495834        1.64721043929441       -0.84720256161563
H            8.62046100674469        1.82763839511420        0.81437700052976
H            9.23652829277317        1.14690566039388       -0.71838443892291
H           10.05627597827470        0.76765743417479        0.81344399320873
H            7.26346638854310       -4.24294863071981        1.81121697451294
H            5.61811027366783       -3.57555840724176        1.91383752165592
H            6.24213987996399       -4.18871771230354        0.35438087285552
H            4.55095584697826       -2.55537781361094        0.07734424431794
H           -0.00909227270023       -2.16027464580268       -1.20539816853394
H           -0.99872287973522       -1.28378499302105       -0.02392242382882
H            0.55980476466613       -1.93775668734974        0.46450216281814
H           -4.99575671499462        3.00038362209076        0.23236663424126
H           -3.63469985789897        2.87206166149239        2.95877436732783
H           -4.75897265242795        1.66226244205449        2.31640072264357
H           -5.32178790448239        3.29800394181387        2.65570611779462
H           -2.97115710343495        4.83969191873785        1.56735571546029
H           -3.54522684621124        5.01502377885942       -0.09726676789784
H           -4.66626519793683        5.20640296962499        1.24876115122514
H           -0.57438444025350        3.18561136790111        2.40652031897287
