72
 energy: 28.913021770989 xtb: 6.6.1 (8d0f1dd)
N           -1.51594369510900        3.22406418852951        2.00219487643628
C           -1.70322115024565        2.49269323746125        1.00071340238496
C           -3.01763193134174        2.33874391422051        0.29255462872014
C           -3.45576023791659        0.87267432976763        0.31024448821681
C           -4.39129759353597        0.44407230419616       -0.63116153141290
C           -4.82587973569772       -0.86472217601221       -0.65250268802065
O           -5.73372834151429       -1.37952699192542       -1.52783545869477
C           -6.34073091722488       -0.52098188449659       -2.45857187876462
C           -4.31583225585500       -1.77916483191421        0.29650954207474
O           -4.80653316160291       -3.04527907656534        0.20431038839314
C           -4.42726975217687       -3.97793722957606        1.18330814068188
C           -3.38855293564221       -1.34698105630817        1.22535516499377
C           -2.96092925900568       -0.02532865440825        1.23179288753937
C           -2.81039768994178        2.71538607271543       -1.12612675389472
C           -1.13010216364135        0.43104736456884       -2.17773054543393
C            0.09207959518299        0.55801780221341       -1.65572037666011
N            0.65991639629688       -0.22147740886060       -0.67825720860318
C            2.05985240516886       -0.06865342094006       -0.35345569794292
C            3.02952638463813       -0.83113126438812       -1.27561813814066
C            4.45251540392455       -0.65131760948993       -0.82551403644818
C            5.13526801143756        0.52306225482911       -1.08321483275995
C            6.43669834813910        0.70375455542207       -0.63477485697286
C            7.08099061542701       -0.28710946642451        0.08263771530417
O            8.34997083507209       -0.21538768598768        0.57281250259328
C            9.09129441260814        0.95756306026915        0.35368800533312
C            6.39767949416277       -1.49562895191830        0.34193352190479
O            7.11409903183708       -2.42337035682799        1.03624983435683
C            6.53337443438489       -3.67397582108797        1.29827402568718
C            5.09938228596493       -1.65672953066230       -0.10859206925462
C            0.03312225813425       -1.46813727402043       -0.31524423439204
C           -4.16089173323831        3.17321992609335        0.92635302938319
C           -4.47336262552712        2.70412483709985        2.34420941810527
C           -3.85744842884225        4.66803004895606        0.94392383872807
H           -4.76816376708292        1.14771250313044       -1.35542099473897
H           -6.88246805355424        0.29280739682293       -1.96430860393550
H           -7.04889432436691       -1.14246488812311       -3.00556420562206
H           -5.61213178257639       -0.10038090426559       -3.15986116738644
H           -4.67199356157458       -3.63362570504220        2.19403950198031
H           -4.99441461173496       -4.88020123826790        0.96262842421929
H           -3.35779505619494       -4.20576920819648        1.13232483375667
H           -2.98770977234373       -2.02358655274544        1.96415009729924
H           -2.24028036803466        0.29221365084919        1.96931296935275
H           -3.61687075981481        3.11421560278358       -1.69622563075894
H           -1.86065292904489        2.97141762981931       -1.50194419974513
H           -1.78591664059197       -0.39415667815377       -1.97296531852092
H           -1.39972365888983        1.03055325833402       -3.02306147282886
H           -0.90964512348917        1.91260624296101        0.51322018237557
H            0.72516155628338        1.41352082562275       -1.89996279638551
H            2.20853986822590       -0.39989262566247        0.67751055454304
H            2.32184827844002        0.98951666176039       -0.37055682174680
H            2.90500022572824       -0.44563859732646       -2.28754549238334
H            2.76822709450571       -1.88967593257204       -1.27917664227669
H            4.65677117065834        1.31147424231223       -1.64555774924686
H            6.93845595160790        1.63119864346257       -0.85570460955121
H            8.61605319496304        1.83090814034514        0.81410417635226
H            9.24153041922853        1.14779518154716       -0.71440927372019
H           10.05800293354588        0.77904171965467        0.82129210666559
H            7.29336181735076       -4.24237695772828        1.83325105383147
H            5.64371759277831       -3.58516686436312        1.93039512399410
H            6.27383732952911       -4.20180718618190        0.37461887179295
H            4.57228479735834       -2.57808096289795        0.08979813558227
H            0.03251258365230       -2.20878144053098       -1.12549657435380
H           -0.99608452141585       -1.27543915327966       -0.02100550912460
H            0.55637582699629       -1.88932954986158        0.54113148078490
H           -5.03994082278875        3.00200276435212        0.29611264207277
H           -3.61746028976762        2.87049933466834        2.99247614218918
H           -4.73806088752724        1.65037875637389        2.36294591314617
H           -5.31504018573502        3.27268669219512        2.72964024309783
H           -3.02357845331946        4.86537136478722        1.60923684381809
H           -3.61850272151554        5.04366958681516       -0.04663259285032
H           -4.72887054349249        5.20468926660824        1.31310170135472
H           -0.56523471509970        3.24601436681769        2.36387716563744
