72
 energy: 18.100181833093 xtb: 6.6.1 (8d0f1dd)
N           -1.51692694017338        3.00116134004644        2.14152455660004
C           -1.61868711405058        2.33584950653805        1.07783973259606
C           -2.86179258906305        2.18418451829154        0.25229362817594
C           -3.38379279424675        0.75847140201032        0.32498058346347
C           -4.34676158641993        0.34592695188335       -0.59844241155551
C           -4.83611573527922       -0.94397352332462       -0.59043801653162
O           -5.77763608827486       -1.43711582505608       -1.44859065771921
C           -6.36769161317055       -0.56581244443434       -2.37735833374277
C           -4.35869252799625       -1.86239550579154        0.37076743485548
O           -4.90023614026129       -3.11174570063525        0.30281073792796
C           -4.54642992885919       -4.04004045338801        1.29519317567302
C           -3.40927818713262       -1.44802892679650        1.28392862951374
C           -2.92515028231938       -0.14635574003153        1.25831784122114
C           -2.42705736588528        2.33903961523212       -1.23093409497866
C           -1.35426442154339        0.94574544611389       -1.88878439984306
C            0.01075593582972        0.90761963818903       -1.33204035431801
N            0.64094483207614       -0.14798194231360       -0.64417892665964
C            2.02521565289414       -0.05520896487198       -0.25708243800151
C            2.98642501701184       -0.68636003621964       -1.28402142877308
C            4.40818760642823       -0.54254188005826       -0.83903513329981
C            5.10701665707379        0.62816653905407       -1.06653689561762
C            6.41227558185651        0.77338872928029       -0.61902659786314
C            7.03827845760482       -0.24912862806967        0.06987358295059
O            8.31272606453592       -0.21525847502052        0.54930139839589
C            9.08024922991502        0.94151314926488        0.33689660517661
C            6.33354261842270       -1.44826158211813        0.31107029746848
O            7.03286971156095       -2.40444742136501        0.98344306769859
C            6.42430912013832       -3.64519803791821        1.22584024189625
C            5.03260830854670       -1.57461424016749       -0.13896818322045
C           -0.01300967636971       -1.41169853762160       -0.47420251505236
C           -4.01153089227429        3.12390943934665        0.73622770493622
C           -4.48847792738576        2.73808495586118        2.13907396283869
C           -3.62509135007315        4.60007481784969        0.74139170100882
H           -4.70872212521289        1.04547166037559       -1.33496878100945
H           -6.86425296492500        0.27706759989876       -1.88406917928023
H           -7.11249813382866       -1.16404624662173       -2.90131045983293
H           -5.63759504457798       -0.18477322787303       -3.09945396600423
H           -4.77800785957761       -3.67259959425971        2.30131821462791
H           -5.14291192622072       -4.92657068457196        1.08816876364233
H           -3.48399767106755       -4.30207350161369        1.24555827809386
H           -3.02970253370626       -2.12515678889828        2.03206255056877
H           -2.19026888364654        0.15521926797893        1.98777339002074
H           -3.29572889262015        2.66999116252410       -1.80558857244229
H           -1.68824765486192        3.10672712990693       -1.38657605850362
H           -1.80574086288726       -0.03861990025809       -1.82923891605418
H           -1.25383975690756        1.25723418002797       -2.92409421646680
H           -0.79152369145915        1.79187634730778        0.60997723125057
H            0.68505979806079        1.75586685463523       -1.44639184971057
H            2.18917728685228       -0.53911929678341        0.71562785495795
H            2.30126907606169        0.99328667862495       -0.13162128267801
H            2.83279263929446       -0.18546544334154       -2.23800774768297
H            2.72632523084617       -1.73889250684309       -1.40431977864756
H            4.63831756853372        1.43765852029559       -1.60569311977911
H            6.93409008032017        1.69416939885821       -0.82212810278081
H            8.63328019187569        1.82011228758428        0.81521655694695
H            9.22074490490943        1.14420771362004       -0.73044353583852
H           10.04784012133140        0.73442842784367        0.79103456000802
H            7.17388525542155       -4.24155328844295        1.74462996520330
H            5.54049081970292       -3.54683510765417        1.86483230839805
H            6.14653348061707       -4.14891089880872        0.29404559675276
H            4.48589692741266       -2.48824385080968        0.04099216196869
H           -0.10678709423689       -1.95230557510601       -1.42371081894985
H           -1.00839585952308       -1.26244613757998       -0.04925074119751
H            0.56417208062741       -2.02951237746303        0.21892167772858
H           -4.85077714941005        2.98678000909372        0.04375680269097
H           -3.68556238330123        2.88265779109728        2.85628328607057
H           -4.81246106947198        1.70105676056625        2.17181491485672
H           -5.32875412505962        3.36994165608219        2.42444794096746
H           -2.81354777889436        4.76879616434503        1.44220778392533
H           -3.32506617814211        4.93205067871999       -0.24660444873261
H           -4.47717442890111        5.20032355304548        1.05660793598784
H           -0.57957855020621        3.00244803351890        2.54295073661351
