  25
        -42.04444102
 C          2.8565303621        1.1880531651       -0.4319332305
 N          1.9967508020        0.0579408508       -0.2230754568
 C          2.3276980069       -1.2255063990       -0.3361482025
 N          1.2648236776       -1.9912919802       -0.0843944302
 C          0.1793655335       -1.1982301160        0.2490310584
 C          0.6394131299        0.1528188762        0.1357395857
 C          0.0346882641        1.3494920906        0.3088683825
 O          0.4088694134        2.6438468771        0.3655979012
 N         -0.9008868131        2.1777690455        0.8571256683
 C         -2.0416593179        2.6435745097        0.1139030030
 C         -1.9315725379       -1.2660611971       -0.7000513197
 O         -2.0925216832       -0.3427525725       -1.4164058924
 N         -1.1253549690       -1.7033671112        0.2378876389
 C         -1.4446707640       -2.8894549520        1.0227227281
 H          2.9051875852        1.7961599709        0.4726159896
 H          3.8538792624        0.8422484451       -0.6909408171
 H          2.4694620739        1.8146245068       -1.2368816344
 H          3.3077875302       -1.5884279060       -0.5749124304
 H         -2.3098171168        3.6223302505        0.5056304000
 H         -1.8632120023        2.7076528710       -0.9615651609
 H         -2.8530126549        1.9441264195        0.3071906460
 H         -0.9176327297       -2.8323550835        1.9734881616
 H         -1.1650028101       -3.8077298999        0.5035470310
 H         -2.5159658485       -2.9111829596        1.2109620738
 H          1.2614006712       -3.0001619228       -0.0884716654
