25
 energy: -42.136768465389 gnorm: 0.002706858399 xtb: 6.6.1 (8d0f1dd)
C            3.31580526384576        2.38616801604931        0.01511146008147
N            2.83107382385816        1.03018657924483        0.01558042331633
C            3.56133545302416       -0.07760497398508        0.01904968311483
N            2.76606622759830       -1.16084234755571        0.01906531588449
C            1.46164245114018       -0.73674465676866        0.01529505776613
C            1.51427582939724        0.66440786053391        0.01332168310035
C            0.28671746776998        1.43160500812703        0.00352393101766
O            0.21733977701692        2.64507336975071       -0.00165576272035
N           -0.82136025512570        0.60469105489239       -0.00055664327322
C           -2.12941831560802        1.22824667915308       -0.01551517970162
C           -0.81841809777665       -0.81705170735551        0.00571442903064
O           -1.88087507303368       -1.39699555524758        0.00297815459403
N            0.37380315397671       -1.46218075087880        0.01311351832047
C           -4.53879414813879       -4.15630532383482       -0.02585521440462
H            3.91474770183621        2.57502524714765        0.90627275322589
H            3.93003797131246        2.56899387943741       -0.86673427125842
H            2.45956547695186        3.06067023163687        0.00580104868406
H            4.63456003458426       -0.10494151536764        0.02109561636437
H           -1.99328639114673        2.30806655774591       -0.01262512167766
H           -2.67662579651206        0.91693843022714       -0.90639232624766
H           -2.69848352621276        0.91415530248280        0.86047205625580
H           -4.76851792067000       -4.64614053778329        0.90062659607679
H           -4.97675009203542       -4.51244127684809       -0.93866273487195
H           -3.86552735558272       -3.31742899672475       -0.03915263854295
H            3.06151785362966       -2.12731203248162        0.02129978376844
