72
 energy: -99.406687977659 gnorm: 0.002720696506 xtb: 6.6.1 (8d0f1dd)
N           -1.91148965842532        2.95357247438452        2.16101696163913
C           -1.87418289088594        2.17203898728124        1.18806033825787
C           -3.01334461841935        1.93266054218653        0.23666184623023
C           -3.45718764942033        0.47997266788196        0.31412463359063
C           -4.36936795622593       -0.01970369925558       -0.61803758372547
C           -4.82234120348920       -1.32714496153209       -0.55760282843394
O           -5.71700388418886       -1.88373251582825       -1.40011676137060
C           -6.37992769176097       -1.07204025798174       -2.34105090584386
C           -4.33386175938046       -2.19108682404700        0.45972802725246
O           -4.81704765848031       -3.44925631205810        0.43334299942409
C           -4.46021319760861       -4.34094439473447        1.46355910594181
C           -3.43029835064511       -1.68853040979613        1.38208378866165
C           -3.00452308118441       -0.36790529191509        1.31280244373661
C           -2.44016480131475        2.23603944418393       -1.17317361261707
C           -1.47911405419935        1.15927949428225       -1.70950705530758
C           -0.16222757088402        1.13796202180645       -1.03279292268711
N            0.49399706390370        0.04491338839877       -0.66070343430176
C            1.87234221187334        0.12232282816761       -0.23591886447771
C            2.83763196881758       -0.33016341161283       -1.34894805081369
C            4.26156370419731       -0.13910858089453       -0.90627658381712
C            4.90881712759182        1.06725728378247       -1.11915931369033
C            6.21440921155673        1.25788647289304       -0.69424653596903
C            6.89971285142699        0.24345335606950       -0.04126277806328
O            8.16492156999726        0.31522909648728        0.41140147459457
C            8.90053693626984        1.50060397004431        0.21248908373116
C            6.24279169114625       -0.99793434783596        0.18496393193814
O            6.98219562604840       -1.92845767701028        0.82050655403016
C            6.43239473681771       -3.20159213156652        1.06115070554816
C            4.93629889786975       -1.16417101214187       -0.24727653447755
C           -0.09827006040532       -1.26904750899378       -0.73988087230514
C           -4.25249236118180        2.83018217871312        0.52447626900116
C           -4.87092366853073        2.49927677830957        1.88280974493585
C           -3.95782350499641        4.32477607760447        0.44183958873562
H           -4.74346501264553        0.62798073858636       -1.39372656704165
H           -6.89311353048549       -0.23557238783113       -1.85736568797075
H           -7.11507049802783       -1.71875307538129       -2.81634207336066
H           -5.69159951959177       -0.69053792627340       -3.10222609529080
H           -4.74232585071757       -3.95148906386100        2.44610688280501
H           -5.01614603955278       -5.25492123331789        1.26433923680491
H           -3.38759494567720       -4.56008910501597        1.45106734966135
H           -3.05946277425870       -2.31403347597312        2.17769345763284
H           -2.33079232863638       -0.00172226204045        2.07202840981224
H           -3.26773637129752        2.32869717631198       -1.87573616486777
H           -1.92296276119087        3.19577549304833       -1.14416637699512
H           -1.96552903462823        0.18607244602269       -1.67195545579167
H           -1.29570098372721        1.39950127611415       -2.76514245777158
H           -0.96829047852092        1.61313172874677        0.88170227681400
H            0.38239094208381        2.06909146631469       -0.97469583551431
H            2.01302303200374       -0.50838989588408        0.64621188721953
H            2.10911463799483        1.15199226183004        0.03938454761540
H            2.64450066211040        0.26654922772655       -2.24213917741250
H            2.65593523433558       -1.37863317036675       -1.58761920132778
H            4.40146423671920        1.86921902854552       -1.63361068119569
H            6.69395129152568        2.20426609427957       -0.88272415849457
H            8.43320747526611        2.35165663921893        0.71717118994283
H            9.01745065937793        1.72533738730121       -0.85187010592333
H            9.87874620307820        1.31404378010091        0.65137086227132
H            7.21642418632053       -3.76870819601438        1.55914138645787
H            5.55727036015978       -3.14385360937300        1.71639630543043
H            6.15985459044284       -3.70409016288555        0.12788141343496
H            4.43272459243815       -2.10479438550724       -0.08754149898641
H           -0.22174085620909       -1.58600061820360       -1.77775277724422
H           -1.07523736239263       -1.27730200429999       -0.25092087656797
H            0.54676830564893       -1.98306054295972       -0.23408419597015
H           -4.99355787315991        2.59577766455610       -0.25178210380920
H           -5.14545735381014        1.44891157673678        1.94483066050541
H           -5.76560416585668        3.09710988549261        2.03295109437893
H           -4.16937476744883        2.72732346206211        2.67876877606822
H           -3.21965063651835        4.60364023103476        1.18710144541992
H           -3.60304862613456        4.61638488687298       -0.54314564707977
H           -4.87137338513321        4.87809684763904        0.64391627219969
H           -1.06728363277537        3.06892361387375        2.71268566739165
