  72
        -99.31654959
 N         -1.7566327540        2.6821918116        2.5341815278
 C         -1.7792945725        2.0755279760        1.4438810846
 C         -2.9668454449        2.0116144668        0.5232555492
 C         -3.4770268963        0.5802849848        0.4536858691
 C         -4.4476430763        0.2363836309       -0.4893875272
 C         -4.9567486872       -1.0492038879       -0.5691915284
 O         -5.9005129934       -1.4605014662       -1.4397588780
 C         -6.5191667539       -0.5180511046       -2.2838927002
 C         -4.4741847903       -2.0496692853        0.3184687439
 O         -5.0184996823       -3.2720921967        0.1647899766
 C         -4.6597336949       -4.3009373805        1.0579578972
 C         -3.5114482053       -1.7010354550        1.2526349487
 C         -3.0232615856       -0.4022095483        1.3204654433
 C         -2.4523779211        2.4604960208       -0.8701073106
 C         -1.5877497400        1.4157702468       -1.5984711650
 C         -0.2422693299        1.2535121936       -1.0066317695
 N          0.3711523589        0.0987169522       -0.7969847830
 C          1.7425373018        0.0731324694       -0.3454248972
 C          2.7263378929       -0.2082352036       -1.4955376283
 C          4.1265116600       -0.1575755614       -0.9778669558
 C          5.0956517903        0.6005670689       -1.5054916975
 C          6.4550167589        0.7188445880       -1.0562836935
 C          7.0842653731       -0.0623565498       -0.1464097662
 O          8.3371279273        0.0915852023        0.2982008980
 C          9.1067620313        1.1996527359       -0.1215887086
 C          6.4548104371       -1.2727732777        0.5148708270
 O          6.1100705871       -1.2460583744        1.6769420354
 C          5.9993712066       -3.6392391729        0.1162601280
 C          6.3628155321       -2.4484800547       -0.3653854351
 C         -0.2738414411       -1.1694733413       -1.0414223883
 C         -4.1421444787        2.9296481104        0.9729902259
 C         -4.7312843328        2.4703050763        2.3044177192
 C         -3.7536496307        4.4028321712        1.0610994247
 H         -4.8216437609        0.9906517076       -1.1615500308
 H         -6.9974722698        0.2810200748       -1.7096907159
 H         -7.2789971790       -1.0718690396       -2.8316552350
 H         -5.8075009803       -0.0847749823       -2.9942613549
 H         -4.8933883612       -4.0327619264        2.0923907001
 H         -5.2561422767       -5.1626393556        0.7649418671
 H         -3.5973063407       -4.5515698235        0.9759801902
 H         -3.1404415505       -2.4337794659        1.9506759556
 H         -2.2988352728       -0.1632042029        2.0835219812
 H         -3.3098159325        2.6879423494       -1.5024097877
 H         -1.8771109858        3.3795392316       -0.7526266944
 H         -2.1219354424        0.4685566474       -1.6492224675
 H         -1.4524882465        1.7795890067       -2.6253144231
 H         -0.9044159480        1.5506212302        1.0133568907
 H          0.3441501251        2.1473606166       -0.8505011202
 H          1.8523126145       -0.6981343338        0.4214842283
 H          1.9925514147        1.0372537155        0.1022302484
 H          2.5841882058        0.5272847483       -2.2895840036
 H          2.5232660680       -1.2008138460       -1.9082261567
 H          4.8507543692        1.2266680063       -2.3551439393
 H          7.0091372414        1.5332774979       -1.5011577122
 H          8.6191759609        2.1419757729        0.1417602946
 H          9.2914248630        1.1685074583       -1.1991463248
 H         10.0520315159        1.1153613011        0.4106916287
 H          6.6301237894       -2.3069034120       -1.3963065096
 H          5.7522273226       -3.7530132657        1.1617555548
 H          5.9522975186       -4.5183292820       -0.5013938443
 H          4.3131895075       -0.7675753305       -0.1086559846
 H         -0.5057844020       -1.2946094048       -2.1008058802
 H         -1.2013323873       -1.2437911459       -0.4674620571
 H          0.3887407316       -1.9744993320       -0.7347874152
 H         -4.9217773184        2.8308425490        0.2089824163
 H         -3.9941900093        2.5754633908        3.0939808257
 H         -5.0517538335        1.4324132052        2.2557968023
 H         -5.5935539428        3.0836713683        2.5519163669
 H         -2.9585333797        4.5407152836        1.7872460826
 H         -3.4354303292        4.7980371746        0.1000522895
 H         -4.6150608207        4.9789395126        1.3884130633
 H         -0.8913406566        2.6829725713        3.0646760733
