  72
        -99.38701651
 N         -2.2286422635        1.8003635919        2.7602127219
 C         -2.1892313314        2.2661721271        1.5861295017
 C         -3.0463228426        1.9032959560        0.3589250291
 C         -3.6846335181        0.5346529355        0.3865118065
 C         -4.9039329328        0.3510022214       -0.2680261164
 C         -5.5006539110       -0.8976002868       -0.3357296177
 O         -6.6708347507       -1.1734727401       -0.9432656533
 C         -7.3828987109       -0.1363601925       -1.5752787618
 C         -4.8573508634       -2.0131178039        0.2701267567
 O         -5.5053981732       -3.1869029700        0.1548835325
 C         -4.9314053646       -4.3455289136        0.7147171930
 C         -3.6434953938       -1.8191420143        0.9108854864
 C         -3.0624954305       -0.5602656295        0.9653502497
 C         -2.3008738301        2.1173632552       -0.9696695676
 C         -1.3322461113        0.9928926797       -1.3382111697
 C         -0.0892791540        0.9645638951       -0.4447323898
 N          0.8729399843       -0.0239596285       -0.8780377466
 C          2.2399161596        0.1845037108       -0.4513459068
 C          3.2282248351       -0.1114746029       -1.5968957446
 C          4.6402963672       -0.0582602517       -1.0952712943
 C          5.3780703507        1.1164971876       -1.1475498746
 C          6.6717350999        1.1680930534       -0.6540526885
 C          7.2593682520        0.0427726120       -0.0902720519
 O          8.5026688657       -0.0254553171        0.4167005425
 C          9.3270600489        1.1167098465        0.3835165742
 C          6.5104149140       -1.1672431975       -0.0274796287
 O          7.1537592361       -2.2101160945        0.5300487805
 C          6.5028922025       -3.4552500472        0.6208208846
 C          5.2174239458       -1.1916661110       -0.5278456115
 C          0.4369429650       -1.3919214774       -0.7451666285
 C         -3.9160491626        3.0236308619        0.7886202094
 C         -5.0217076336        2.8111946076        1.7565835795
 C         -3.7320409443        4.4071814420        0.2844728015
 H         -5.3789361259        1.2035662510       -0.7267130348
 H         -7.6861755011        0.6349395110       -0.8604387621
 H         -8.2702378578       -0.6056480472       -1.9955488878
 H         -6.7987626996        0.3188726584       -2.3810503676
 H         -4.8147491311       -4.2523625907        1.7986734699
 H         -5.6279967610       -5.1521706170        0.4954452605
 H         -3.9615021604       -4.5706250319        0.2602948868
 H         -3.1338850878       -2.6477181571        1.3747554268
 H         -2.1132467701       -0.4501935189        1.4654262054
 H         -3.0526706824        2.1926625703       -1.7586439628
 H         -1.7517532712        3.0587382723       -0.9428120291
 H         -1.8593002014        0.0408246984       -1.2882707713
 H         -1.0045921584        1.1413660458       -2.3684929219
 H         -0.3887153178        0.7918712888        0.6017808063
 H          0.3947934596        1.9429244045       -0.4962545804
 H          2.4859861507       -0.4575631575        0.4065772068
 H          2.3743961027        1.2211507557       -0.1382348517
 H          3.0759052404        0.6230961110       -2.3874444198
 H          3.0175245638       -1.0998411650       -2.0060083681
 H          4.9455157947        2.0027870442       -1.5855387349
 H          7.2208905685        2.0935046430       -0.7148595154
 H          8.8969504377        1.9377218438        0.9650188550
 H          9.5071930736        1.4503880650       -0.6426733860
 H         10.2689661982        0.8097512559        0.8342541298
 H          7.2199179151       -4.1265432281        1.0894982161
 H          5.6047218416       -3.3934346106        1.2433001780
 H          6.2375931745       -3.8417744579       -0.3679895087
 H          4.6437001527       -2.1044820895       -0.4903688089
 H         -0.4680092268       -1.5560531662       -1.3250625550
 H          0.2354566301       -1.6584719703        0.3027091688
 H          1.2082229896       -2.0562467968       -1.1272972370
 H         -1.4377203821        3.0181512840        1.3813062275
 H         -4.8447027363        3.3835076012        2.6707860375
 H         -5.1543720183        1.7647244712        2.0174512049
 H         -5.9552459225        3.1872194028        1.3337493372
 H         -4.1992227433        5.1245760941        0.9556049228
 H         -2.6852681584        4.6772432275        0.1613048283
 H         -4.2032629456        4.5116923922       -0.6976737718
 H         -2.9462714446        1.1147555431        2.9766719444
