25
 energy: 32.386913881837 xtb: 6.6.1 (8d0f1dd)
C            3.30182700109662        1.24465629820075        0.11565103709982
N            2.35437393782148        0.16320923786664        0.04194857818924
C            2.70872100482713       -1.17677920349525        0.07490094397271
N            1.54634588724856       -1.90471796715836        0.05211727099555
C            0.43972646519072       -1.12648592875997        0.02364923894974
C            0.93644639955070        0.20095582066245        0.01618916505364
C            0.07821445003706        1.29816432631754       -0.06684883092660
O            0.40253509932505        2.48834263807330       -0.10735325560707
N           -1.35787910032325        0.90774221600602       -0.06658592737000
C           -2.17729782360727        2.11255461749946       -0.10030859993741
C           -1.86285476031759       -0.36964471419020        0.06382408469867
O           -3.01712183855578       -0.76297271021503        0.17766050470121
N           -0.93907415881521       -1.43285847171186        0.05683736178690
C           -1.77126335090217       -2.73364023668872       -0.01032444043404
H            3.81827518025377        1.27685705810383        1.08658901012298
H            4.07658145501119        1.14272249007058       -0.65615212289848
H            2.78700961903752        2.19397473366221       -0.02364506351317
H            3.69716257236560       -1.58706279819098        0.13542529498463
H           -1.50809583783300        2.97885358518730       -0.04891405943970
H           -2.73452739214558        2.18630892302232       -1.03145815821104
H           -2.83627305355149        2.16149857218968        0.75959579121239
H           -1.01645966996662       -3.47547158762059        0.24373965154950
H           -2.02415523568293       -2.91044457122156       -1.06324130926231
H           -2.89670933712250       -2.89964650718595        0.54815146932422
H            1.55637725572974       -2.90655117615651        0.05296301973079
