25
 energy: 18.135840957317 xtb: 6.6.1 (8d0f1dd)
C            3.28115956372347        1.21943778019792        0.10320326231643
N            2.34045308201460        0.13855253500816        0.03605947905909
C            2.67452064987302       -1.20541091441139        0.06154411434009
N            1.50383910399172       -1.91676593368648        0.03456056861463
C            0.42577746697421       -1.10478055573721       -0.00511796158052
C            0.93585665280382        0.20826769588820       -0.00638431241556
C            0.08358335434211        1.31398808305633       -0.05397690806177
O            0.40126529373396        2.50848515053600       -0.06890032211793
N           -1.35152338433084        0.92318471076227       -0.06169355863982
C           -2.19696972349051        2.11112920402801       -0.08851417525105
C           -1.89023134408951       -0.36259100469918       -0.07055646938076
O           -3.04094843130362       -0.78256990901498       -0.13077146913430
N           -0.94484736308984       -1.39869150120610        0.01038588704194
C           -1.69026458839779       -2.68343153128305       -0.01302547897925
H            3.78312587722041        1.25981844433420        1.07907537771348
H            4.05557362535898        1.10668649803722       -0.66451596083683
H            2.75558405765114        2.16094310006872       -0.05011251509397
H            3.65775127652894       -1.62135636666076        0.10538188977230
H           -1.56033130501036        3.00265014530727       -0.03859070985565
H           -2.76721397545875        2.15586748172583       -1.01332236284737
H           -2.85520307585700        2.13039125488188        0.77457555516242
H           -1.01577741004433       -3.39820641517997        0.46669198111634
H           -1.75865610207572       -3.01039438902559       -1.05660900759631
H           -2.80630488675363       -2.67679468754687        0.41379991102790
H            1.48787638800198       -2.91783571311838        0.04219936396464
