25
 energy: -4.866075629827 xtb: 6.6.1 (8d0f1dd)
C            3.25063913469485        1.18437497709415        0.09075346815851
N            2.31246347729269        0.11163825152601        0.03553992643624
C            2.61901589003751       -1.22985257770880        0.03827370973086
N            1.44153272986395       -1.93014739806166        0.00689116252800
C            0.40646608028955       -1.06719211515338       -0.01250415541775
C            0.92296877147317        0.22725016026020        0.00756972693072
C            0.10613648702591        1.37265560269756       -0.01607388912967
O            0.46664339043783        2.55589858355097       -0.01940617097923
N           -1.28842034190262        1.01921051300929       -0.03752209279972
C           -2.21513786093270        2.13898392443575       -0.05923412763315
C           -1.83252975181482       -0.23737067531372       -0.04540530645818
O           -3.02345463542388       -0.48704564175087       -0.05832736495764
N           -0.93745277617512       -1.32071991810856       -0.03632037137047
C           -1.53509491978508       -2.63646904225079       -0.05710682885005
H            3.73420210696210        1.22848907519696        1.07166827655236
H            4.02171718045226        1.05489960849037       -0.67257510294264
H            2.71212967684822        2.11509896166249       -0.07959700909143
H            3.59765743663623       -1.64227474651762        0.05587685954570
H           -1.63791948194082        3.06401522356824       -0.02939347394169
H           -2.81155613388497        2.10853967987861       -0.96980090586686
H           -2.87218627804542        2.09051611116716        0.80623242124990
H           -1.12697398428839       -3.23854897680328        0.75197633164739
H           -1.29870395899334       -3.13772368826011       -0.99397742107202
H           -2.64015702952655       -2.53490788912890        0.04176694309826
H            1.39654252029477       -2.93258723567524        0.00225412756581
