25
 energy: 135.422571077461 xtb: 6.6.1 (8d0f1dd)
C            3.37864097446014        1.30054282226818        0.10830090937385
N            2.45354282265886        0.19506578704386        0.08552432683086
C            2.75789234291512       -1.10471865134512        0.11943690180569
N            1.64465245802138       -1.84496806030668        0.07763278924612
C            0.54917354032775       -1.00309578020335       -0.01413111094317
C            1.06039278700139        0.30832441121554        0.00190520152392
C            0.19688057314470        1.42024297136608       -0.04219546769638
O            0.55824831080754        2.60506969108258       -0.05540428541170
N           -1.17209255850445        1.00966383873161       -0.06037328016126
C           -2.08427045673642        2.15216263055885       -0.11524005410655
C           -1.69766536337580       -0.22453175497704       -0.07995357428063
O           -3.98544382219883       -2.49363189784679        0.01575181026934
N           -0.77263510614015       -1.30125436865504       -0.10275391704306
C           -1.26868937183128       -2.53206185427291       -0.28346484034032
H            3.90323341521788        1.35855099300878        1.06369384192852
H            4.11589288407008        1.18809818757422       -0.68722947841264
H            2.82307853751034        2.23197377811345       -0.04120753910662
H            3.76052867558362       -1.50577261467293        0.17973830371442
H           -1.47452765463797        3.05423916806228       -0.07298250350071
H           -2.64199956268644        2.12709011348473       -1.05970105454945
H           -2.78339488976265        2.15291969602259        0.71938515076676
H           -0.64604020568443       -3.39633438016167       -0.44859605231267
H           -2.35247833662957       -2.55090538489623       -0.06455325851635
H           -4.91032976407017       -2.88656531779012        0.08918841285288
H            1.60523097050148       -2.85748084913395        0.14411146098199
