25
 energy: 143.760138639742 xtb: 6.6.1 (8d0f1dd)
C            3.36677893039282        1.29662683806168        0.11677900368674
N            2.43442140389258        0.18499227948687        0.09292472912478
C            2.75057055262984       -1.12788319566416        0.15154422836722
N            1.62093310558305       -1.86261324975053        0.11086525417791
C            0.53303755806131       -1.02832915402149        0.03240354472569
C            1.04138088345799        0.28134709826948        0.01439586466398
C            0.14665403445518        1.38278741912082       -0.03508507650345
O            0.50467181642963        2.56817889698551       -0.09235773322391
N           -1.23883454120607        0.96066346811402       -0.05702682763890
C           -2.11654911961114        2.12592659019688       -0.14142072589873
C           -1.76332279982598       -0.27944268776292       -0.07740484357616
O           -3.72581955354173       -2.19494175886488        0.06306584488375
N           -0.79771578474139       -1.31015047193360       -0.09759345045734
C           -1.33795724193317       -2.48807333935695       -0.40402824533160
H            3.93152492030564        1.29682616583708        1.05253329084548
H            4.09112021906114        1.23133935526462       -0.70010834477060
H            2.83790228693636        2.24794250390108        0.02875134721346
H            3.75646895248458       -1.49151788424027        0.22303771741221
H           -1.47649604352147        3.00854396711018       -0.10957174103371
H           -2.64682513347852        2.11749971041331       -1.09993330120719
H           -2.82811820264935        2.13681642613580        0.67685998301835
H           -0.77171923322059       -3.35603504565664       -0.59959176762847
H           -2.47629276425729       -2.33827977020836       -0.44119177394774
H           -4.40966653058487       -2.95621930451980        0.25855444822328
H            1.62383749070492       -2.87220447508574        0.18057600328311
