72
 energy: -99.702847265602 xtb: 6.6.1 (8d0f1dd)
N           -1.63502658105905        3.03347384145721        2.27042678921159
C           -1.60099913595033        2.25309829430089        1.28276974186360
C           -2.73405254992812        2.09178942571992        0.30443562903792
C           -3.26222283760341        0.66724630678544        0.37867613907790
C           -4.16963333656836        0.20889459820173       -0.57929209041302
C           -4.70383695058274       -1.06406716981388       -0.51816803103952
O           -5.60140525856655       -1.58443118556787       -1.40386631144420
C           -6.11575428551881       -0.75414473752011       -2.41298036233635
C           -4.32386845901485       -1.93186857044690        0.52956896622516
O           -4.90578447298192       -3.16524827906862        0.51043693316472
C           -4.65047239095757       -4.04489587907996        1.57427338945495
C           -3.42325407529207       -1.47943022411217        1.47491139135827
C           -2.90244640894424       -0.19242357065803        1.40002117017462
C           -2.14114268665100        2.37255019123485       -1.10312122027542
C           -1.25256995479793        1.25401581663277       -1.68088594451356
C            0.05555496841133        1.15314978276102       -0.99588183671421
N            0.62903256477782       -0.03045155948358       -0.57267480553985
C            2.00566262640367       -0.04965584323678       -0.18955882682941
C            2.96011535402279       -0.50068183219288       -1.32024495578733
C            4.36821344287434       -0.46158323180974       -0.83054728943307
C            5.08488393772878        0.71244661386327       -0.94466295304673
C            6.37199179589942        0.77420650210835       -0.46763176492719
C            6.99427634003520       -0.32093173671810        0.09630588730182
O            8.31484237593000       -0.24309010516643        0.41746088988892
C            9.02142103068100        0.97540272685034        0.21086127296792
C            6.26111231038178       -1.52115024100898        0.27108430090700
O            6.88594665344654       -2.57638545380160        0.88161272194127
C            6.20046130843346       -3.80182212080591        1.00522903707063
C            4.95426828919717       -1.55688317594996       -0.19609273808229
C           -0.04325229267001       -1.28956450325869       -0.73159287919985
C           -3.92573695572057        3.05648890408273        0.56695304430489
C           -4.59164775946453        2.77285014095485        1.91222560219136
C           -3.53150852439945        4.53056975624778        0.49175841840601
H           -4.46581627581986        0.86737968677542       -1.37943896906760
H           -6.61546001567797        0.12755581890799       -1.99745200706771
H           -6.84578661426467       -1.36239703587986       -2.94543051827012
H           -5.33753196131035       -0.43333592265206       -3.11410539918979
H           -4.94827575539848       -3.61427526464273        2.53661104588413
H           -5.25580535849477       -4.92778127669379        1.37278172829826
H           -3.59466985431802       -4.33445736838789        1.61940202245272
H           -3.12095344606260       -2.11584544128736        2.29193792809823
H           -2.22195615460110        0.13609658870927        2.17038883080975
H           -2.96266143328566        2.55421517613607       -1.79903281607778
H           -1.54567343160765        3.28546084747742       -1.05073083469680
H           -1.79029391365975        0.30817483652125       -1.64272293233187
H           -1.09666096020545        1.50067279862397       -2.74403234900084
H           -0.72096547570686        1.65970670533700        0.99135265717822
H            0.69617823294016        2.01692582887731       -0.97870435044209
H            2.12638060061041       -0.72590367689015        0.66392239376634
H            2.29664943554880        0.95348168632503        0.13189382123543
H            2.84648931964781        0.18451363989543       -2.16169994276382
H            2.69067874848679       -1.50482878907200       -1.64482337016868
H            4.66773045085734        1.58384942949135       -1.42110780552649
H            6.92280675784149        1.68989209510783       -0.57274142011770
H            8.86348872618222        1.66901057936980        1.02547045677247
H            8.74593696908903        1.69835131104577       -0.65182977998810
H           10.04601578189447        0.60380012778733        0.32487626770208
H            6.90229502926812       -4.48781133011998        1.48029915051281
H            5.30995695714853       -3.71722149628171        1.63938202328206
H            5.90936336405625       -4.21154926874757        0.03094955028035
H            4.36505768977653       -2.45705214781074       -0.09642144597166
H           -0.20556643765162       -1.55750334406084       -1.78348925802537
H           -1.01353222291884       -1.25623334460596       -0.22917330530359
H            0.55916642316223       -2.06815289544421       -0.26668774056875
H           -4.66460535931953        2.86362142505488       -0.22097249630541
H           -3.88955633855341        2.96732629631059        2.71592757586223
H           -4.92170028526848        1.73818004527179        1.97285688356317
H           -5.45836492394035        3.41867604008568        2.03684641885549
H           -2.76592515541639        4.74737969791609        1.22929828677557
H           -3.16319623988710        4.79880303957612       -0.49505855240365
H           -4.40209071556661        5.14740147261688        0.70476622147902
H           -0.78762927749992        3.05959253781022        2.83506464348537
