25
 energy: 131.946893996065 xtb: 6.6.1 (8d0f1dd)
C            2.12485902963559        1.76922712383883        0.07145565948656
N            2.15153209785527        0.37515159444586        0.08899540358100
C            4.78328241414400       -0.45311437289950       -0.30116762546857
N            1.05094884555395       -2.36918234100548        0.05370419873953
C            0.30993051930832       -1.33767205797812        0.03826498350860
C            0.89286174569947       -0.01090094630989        0.07492366349429
C            0.00232545787647        1.10844199145140        0.07417078414916
O            0.69700495742847        2.23083489059386        0.07948229922245
N           -1.34013675499855        1.02047603960990        0.06002948317464
C           -2.22293590917842        2.18110543915405        0.07487142464760
C           -1.96030657651988       -0.24604095445526       -0.01576557806240
O           -3.17103853206283       -0.32159748478787       -0.06867816071270
N           -1.11461885110367       -1.33362150529584       -0.02570099873862
C           -1.77838400254998       -2.63042557886595       -0.10959919871590
H            2.46254935106579        2.26732750509319        0.97314510835964
H            5.86999441094336       -0.19686530464413       -0.08167285299921
H            2.62484945998877        2.21893558242855       -0.79659950591403
H            4.74763222096875       -1.55073108309015       -0.18293928051977
H           -1.62128643843574        3.08603903302517        0.13283427019978
H           -2.84164925178763        2.19086312050718       -0.82563678353615
H           -2.89937137524542        2.13165756078754        0.93027199909580
H           -1.63158482912832       -3.22936872253581        0.79219488678647
H           -1.45995851159417       -3.20037519054304       -0.98407982128593
H           -2.84230064644352       -2.42499138181744       -0.19959664399403
H            0.63613549067604       -3.28540833449365        0.00783137143893
