72
 energy: 24.949232327069 xtb: 6.6.1 (8d0f1dd)
N           -2.00155400237777        2.46087667361594        2.11953498729650
C           -1.69983729796606        2.67976432569436        0.79432044847560
C           -2.21186278205271        1.91729330751417       -0.18934461822724
C           -2.98882051963799        0.69503335813851        0.07252855476297
C           -4.06602834101168        0.32028512844106       -0.74664797442479
C           -4.80028877467091       -0.82889878886329       -0.52759486218661
O           -5.87422578134219       -1.23245930817474       -1.27546126513389
C           -6.31876631582199       -0.39782626982246       -2.30922825655356
C           -4.46654701199098       -1.68210319830636        0.54899921785615
O           -5.25527784965540       -2.79359645167645        0.69213929517748
C           -5.02094568064934       -3.65828479742950        1.77362600964075
C           -3.39031313907519       -1.33475651808501        1.34732925201793
C           -2.67193128080571       -0.16462345779840        1.12238655715208
C           -1.83489203695635        2.19450116229034       -1.59718965196628
C           -0.96141833666664        1.05833806404815       -2.18906311125482
C            0.39848424629536        0.92530798366515       -1.63498006756745
N            0.83247815589375       -0.10935049705380       -0.84075382333228
C            2.19366614564961       -0.10604666029202       -0.40954948270887
C            3.17397721335754       -0.74794300163221       -1.41081582108357
C            4.57808737083138       -0.60547023296119       -0.91586225114334
C            5.29543734435920        0.55399472930339       -1.15092382214112
C            6.58704284472135        0.70327877435623       -0.66620673101294
C            7.18191133415689       -0.30407569904005        0.07183986764042
O            8.44433975517073       -0.26613532230616        0.59197251746397
C            9.22130072357456        0.88217694416941        0.37315336210908
C            6.45948738812996       -1.49295907463236        0.32156558775202
O            7.13227247009620       -2.43431636577661        1.04684179458203
C            6.50302542488873       -3.66194229162041        1.30760505614725
C            5.17367227095370       -1.62403493960846       -0.16900054778314
C            0.11977922032514       -1.35942177733187       -0.81873395560661
C           -4.91156214963152        3.05823593925279        1.15392471293246
C           -4.98852843956698        2.17913401663373        2.14611487304083
C           -4.63709028103104        4.49328676025068        1.36211044370434
H           -4.34695610158651        0.97149270738646       -1.55572192015706
H           -6.60886903501412        0.58444320025238       -1.92252544020041
H           -7.19429547139204       -0.88489890556904       -2.73486840774816
H           -5.56086674911246       -0.27231576889506       -3.09065245788082
H           -5.11055274731026       -3.13822855095146        2.73140704759955
H           -5.79071700560334       -4.42736119927945        1.71197538612807
H           -4.03537746555714       -4.13175188618698        1.71289653157697
H           -3.10728490494353       -1.97188415218047        2.17292562245025
H           -1.84347525420756        0.06205649714345        1.77411008451306
H           -2.72383142063853        2.30456898109063       -2.24015928259030
H           -1.29526891769346        3.13885923702667       -1.63119556264742
H           -1.52221004879125        0.12800793747842       -2.10435395903967
H           -0.83849385705143        1.32572848632983       -3.24679514782372
H           -0.99778754476918        3.47075805024546        0.52754162854923
H            0.97884503596681        1.82810981416273       -1.56186466364903
H            2.25801321163713       -0.64512129636729        0.53587060120956
H            2.50066558078140        0.92459841750907       -0.22170211966702
H            3.05740414648280       -0.24504360834189       -2.37085045116834
H            2.91158478319168       -1.79832713838164       -1.53893930785289
H            4.85171277710790        1.34948647587054       -1.73021309559159
H            7.12318209503566        1.61520323403650       -0.87554649390641
H            8.76046009238248        1.77468985292395        0.80818440286759
H            9.40566046989785        1.05124962966249       -0.69317053475839
H           10.17040046923534        0.69252990628231        0.87288204756955
H            7.22607568368641       -4.24902105613365        1.87249852727043
H            5.59843379531265       -3.53360179467189        1.91119352775598
H            6.25284232719499       -4.19336293347246        0.38311422470243
H            4.61534453749751       -2.52964998127840        0.01332301055597
H            0.01254774914836       -1.81550104490931       -1.81281974740924
H           -0.87549896948238       -1.21159319408183       -0.38840646541459
H            0.67462117495040       -2.05022929059861       -0.19006874304492
H           -5.21864296354060        2.79816044033966        0.15123089519473
H           -2.98502333715087        2.10464807547589        2.16182775857653
H           -5.25791267704046        1.16099975274079        1.95101570120573
H           -5.09252659321083        2.49288763833362        3.15148504842292
H           -4.39150910503835        4.64825825087459        2.40234336296013
H           -3.86916958598816        4.99436147072584        0.76713928783004
H           -5.58620065874423        4.96416787183736        1.12773388154206
H           -1.81756476845536        3.28421909212281        2.68791410300463
