72
 energy: 30.117803868082 xtb: 6.6.1 (8d0f1dd)
N           -2.02134574378840        2.49308553751318        2.12645160537902
C           -1.69964469291307        2.69494315365443        0.80475642003574
C           -2.24356939215347        1.93881337843168       -0.17414227787738
C           -3.00875507478261        0.70759038126707        0.08663818096066
C           -4.07936306392010        0.31990526784600       -0.73772356941866
C           -4.80286912959322       -0.83786878901991       -0.52846019926312
O           -5.87082822177268       -1.24696057854715       -1.28140132176626
C           -6.32262261093769       -0.40930074728833       -2.30907074374999
C           -4.46367567464929       -1.69529785313709        0.54294840463515
O           -5.24085950885021       -2.81537714900723        0.67647155837775
C           -5.00073614468273       -3.68339694605136        1.75356972299758
C           -3.39133637934798       -1.34329967463943        1.34423667427616
C           -2.68515290606919       -0.16312965827167        1.12905512955037
C           -1.86012339091244        2.20538048220861       -1.58249395858418
C           -0.97963439458202        1.06913912860271       -2.16189497088457
C            0.37493880551606        0.94408424919550       -1.59462417999945
N            0.83260079465153       -0.11562128726559       -0.85539704302160
C            2.18485298716367       -0.10464436059606       -0.39659975597152
C            3.16299420712790       -0.73601330008121       -1.40501893799491
C            4.56739461763385       -0.59588684501857       -0.91434580887164
C            5.28402433338000        0.56497667834692       -1.14505436711348
C            6.57629047726058        0.71212790807799       -0.66196136870457
C            7.17156749432706       -0.29834855806353        0.07165966035552
O            8.43547691621323       -0.26315006745538        0.58774254107030
C            9.21274178222620        0.88504332753198        0.37015142522809
C            6.44884133481420       -1.48740928205761        0.31959971079366
O            7.12229889014931       -2.43198691234243        1.04000878688653
C            6.49202997361314       -3.65933776496485        1.29908581385970
C            5.16246472017147       -1.61649461180389       -0.16968588469430
C            0.11146620468875       -1.36006827325140       -0.81098612574136
C           -4.86072931024086        3.04511694461568        1.12110433241509
C           -4.94782190530688        2.17711836880143        2.13195658310029
C           -4.56645373278383        4.48314460343855        1.31654050594745
H           -4.36534655440869        0.97183173308800       -1.54395365118736
H           -6.62272088591654        0.56704645992588       -1.91578048020666
H           -7.19213647529777       -0.90173799445312       -2.74024331716708
H           -5.56536728120975       -0.26990748669532       -3.08811596150534
H           -5.09940457685796       -3.17019324182082        2.71382960367695
H           -5.76191297568864       -4.45998745144392        1.68611997696871
H           -4.01006211281675       -4.14632061837078        1.69384728442293
H           -3.10441976304030       -1.98407203997868        2.16624318089324
H           -1.86101675104147        0.06369486433553        1.78634782771749
H           -2.74447180953638        2.31631365537549       -2.23149410907924
H           -1.31749380349210        3.14729670659147       -1.61467096413999
H           -1.53514963018314        0.13672086947889       -2.07796412708064
H           -0.85053196575367        1.33558457591950       -3.21814431413702
H           -0.93602941477278        3.42726316033322        0.51879129969076
H            0.95653379081521        1.84462688454693       -1.52713382358886
H            2.25347298022671       -0.65055548788249        0.54636165987231
H            2.48814311486248        0.92586232363695       -0.20256347709351
H            3.04118770235398       -0.22614578435897       -2.36071872359115
H            2.89949041803518       -1.78528674877810       -1.54044422198140
H            4.83919249839606        1.36211336279912       -1.72111336834937
H            7.11290222864605        1.62405073530464       -0.86969699336078
H            8.75377556490540        1.77651834965462        0.80895064566784
H            9.39416399638262        1.05679586272356       -0.69621616908636
H           10.16352351728513        0.69419637547686        0.86611465986120
H            7.21516677855706       -4.24933560543039        1.86097933885475
H            5.58891602969107       -3.53126450064238        1.90492690237066
H            6.23912322634208       -4.18789949011254        0.37379384004563
H            4.60355983790723       -2.52216991561595        0.01082903330070
H           -0.00474095692380       -1.81192772771271       -1.80471318853593
H           -0.88092972262905       -1.21226546401772       -0.37284379202677
H            0.66817605253130       -2.05456076172934       -0.18759644371093
H           -5.19484618322136        2.77915963585252        0.12552757806223
H           -3.03377155358605        2.11769651006976        2.18430288379983
H           -5.26982616669898        1.16461832659749        1.93158532629099
H           -5.10815060828658        2.54121929605040        3.11035408565893
H           -4.28753379207098        4.65137981287594        2.34792454420291
H           -3.81958150811400        4.98767109085529        0.69773527634828
H           -5.51653154044462        4.95914291254959        1.10642588265563
H           -1.75920565976697        3.28547854122248        2.71003524577477
