72
 energy: 16.170493428961 xtb: 6.6.1 (8d0f1dd)
N           -2.02215689074481        2.48005054286365        2.10724998101909
C           -1.74142299269354        2.66521470237663        0.76409739676656
C           -2.10012306593251        1.83197883675494       -0.22161994971568
C           -2.91371833381103        0.63861568251744        0.03565506933314
C           -4.01214869124174        0.31647824063941       -0.77286383725452
C           -4.79612827747239       -0.79164459046959       -0.51429619603391
O           -5.88216163033710       -1.17559791081248       -1.25333865441675
C           -6.30153502341596       -0.35211302539320       -2.30799216321245
C           -4.48806307350109       -1.63101496601753        0.58026504996900
O           -5.31781050395494       -2.70836598253460        0.75336908760845
C           -5.09943637380566       -3.55594652065888        1.85087275008411
C           -3.39990269953649       -1.31531934550138        1.37483978108415
C           -2.62684196888979       -0.19378814613382        1.10898945590923
C           -1.74975302334539        2.14793716415212       -1.65195949911346
C           -0.89380010467563        1.02278801245673       -2.28598816384966
C            0.43953899637288        0.92946527806722       -1.67171911673782
N            0.88674617579387       -0.12871066005966       -0.90456610398801
C            2.23924532693035       -0.12051409679217       -0.44278143933597
C            3.22329436443217       -0.79689830822384       -1.42853429062805
C            4.62463280638811       -0.64834780894094       -0.93015553960795
C            5.34112257756277        0.51026729600112       -1.17576637104646
C            6.62914809197746        0.66849345430280       -0.68545549869422
C            7.22302561306170       -0.32782499313243        0.06880762685447
O            8.48082400011746       -0.27855637956380        0.60427473827803
C            9.25498150788134        0.87064634903415        0.38430649139767
C            6.50285565537985       -1.51557456174792        0.32636767857897
O            7.17326022699258       -2.44595704430045        1.06947267835702
C            6.54636572905696       -3.67207093899076        1.33984498523409
C            5.21956249035833       -1.65523195124287       -0.16775789852630
C            0.15794848107657       -1.36519401695715       -0.85460251567041
C           -5.13274132415141        3.11637170267787        1.27362982878515
C           -5.18112192716964        2.18480821028759        2.20670660782265
C           -4.89452387939521        4.55484850753335        1.53655803303373
H           -4.27096402803283        0.96421722809390       -1.59612263456278
H           -6.55368236469127        0.65209599844188       -1.94928898208797
H           -7.19789003106451       -0.81797053564782       -2.71509481828740
H           -5.54294871806980       -0.27985273596539       -3.09620978656302
H           -5.15635925365059       -3.01300324677844        2.80051655701203
H           -5.89846045673576       -4.29653112921263        1.81351974124780
H           -4.13287090361298       -4.06784343329975        1.78707140829745
H           -3.13239561882154       -1.94507612667936        2.20883617084994
H           -1.77831085820166        0.02909540500845        1.73480826173731
H           -2.65320332940381        2.25167253129323       -2.25885650411970
H           -1.21056274273199        3.09673078764324       -1.69472002417086
H           -1.45765714340161        0.09295038602969       -2.20336214236650
H           -0.79081903944525        1.27248159110720       -3.35797612392594
H           -1.14159666252809        3.54241672371042        0.56122349806548
H            1.06538634688272        1.79409213909131       -1.66633325829877
H            2.29457274637904       -0.63434251235124        0.52458823627732
H            2.54929969131466        0.91643347212475       -0.29128823128835
H            3.11772357034626       -0.32052247568972       -2.40495717180105
H            2.95751328165053       -1.84944613090238       -1.53085262775923
H            4.90157237791173        1.29934392277108       -1.76771028554937
H            7.16267737741353        1.58078403033919       -0.90082944859108
H            8.78617055064783        1.76717069656681        0.80368529125003
H            9.45172433004363        1.02982802400061       -0.68162728396409
H           10.19707592389358        0.68592207696990        0.89967215442177
H            7.26870894472920       -4.24699494230729        1.91751043297803
H            5.63598313065417       -3.54186096840944        1.93470645123348
H            6.30587382703593       -4.21630255383705        0.41978944274210
H            4.66217349011136       -2.55994685294234        0.02146242200808
H            0.07193264183158       -1.82968508921547       -1.84468873689872
H           -0.84913192687621       -1.20056651058649       -0.45488595005614
H            0.67912744314803       -2.06035947097771       -0.19477647623400
H           -5.23567691738772        2.87104779499726        0.23226452047706
H           -2.88256569978798        1.96928964128725        2.25411124917847
H           -5.36097515906866        1.15538869559587        1.94082350339627
H           -5.12563407779851        2.45055493267287        3.26102429689619
H           -4.80079580956908        4.68190548846751        2.60827808546588
H           -4.00946429581676        4.96980555973505        1.04989560493359
H           -5.75666230633219        5.12008866445484        1.17731942200558
H           -1.96852536669518        3.32222980336575        2.65735591752448
