72
 energy: 25.807670428363 xtb: 6.6.1 (8d0f1dd)
N           -1.91516023317245        2.91028943103627        2.21660768969644
C           -1.68211417854017        2.53261831557831        1.04032761293427
C           -2.71168196943185        2.12856893531120        0.04717017199976
C           -3.17329581501072        0.69664358735532        0.19720102168006
C           -4.19190299908309        0.28531714872149       -0.66742474557413
C           -4.82919867093375       -0.92975445736810       -0.53347725719491
O           -5.85780029093026       -1.36607573187278       -1.32052071098953
C           -6.35946093369055       -0.50225706806517       -2.30242525032374
C           -4.43822664470191       -1.81537598948843        0.49467047206011
O           -5.13930692712568       -2.98894742191020        0.55624196521279
C           -4.84589402739982       -3.88536759314821        1.59515767746974
C           -3.40902917236109       -1.43250679908654        1.33504022896527
C           -2.78597795544856       -0.19090713541676        1.19062945366652
C           -2.09769228451272        2.30399170388310       -1.39162449357026
C           -1.14457883617445        1.17460640298742       -1.92359877417908
C            0.18786420402678        1.08068680071985       -1.26455763370216
N            0.74938575453729       -0.09596039306919       -0.72894066414132
C            2.10371037357838       -0.08790552034133       -0.27939163415437
C            3.05974090347931       -0.64582745657433       -1.34881953229824
C            4.47322326316938       -0.52008015269713       -0.88911796380310
C            5.18802014288790        0.64419510929632       -1.10087194920246
C            6.48829823559187        0.77413495654576       -0.63268904425845
C            7.09117531830081       -0.25668164770321        0.06573716362980
O            8.36229657540837       -0.23824694913808        0.56169038778160
C            9.14556048824231        0.90596108070414        0.34570884998266
C            6.36658867926367       -1.44560914204717        0.30059646015368
O            7.04218004931600       -2.40978132402329        0.99012557543434
C            6.40808994103498       -3.63787191350089        1.23170422645349
C            5.07255260572283       -1.55698513628355       -0.17304730189235
C            0.03845027384731       -1.34684711705207       -0.71912006537526
C           -4.23362755003608        2.96272063843364        0.72271975437100
C           -4.60041831832736        2.29705684289963        2.04519882066468
C           -4.00054772541568        4.47528790066340        0.93570798352327
H           -4.50788752605709        0.96198707915223       -1.44041214666556
H           -6.73263297357257        0.42639567370935       -1.85896348994056
H           -7.18683646061963       -1.03352544757807       -2.77038782439810
H           -5.60852987453882       -0.26593526840972       -3.06251525211482
H           -4.99741644262750       -3.42756037143205        2.57651024970492
H           -5.54313640309478       -4.71387033963896        1.47534532911503
H           -3.81902690195593       -4.26134449503885        1.53330325901390
H           -3.08695636197659       -2.08993404567424        2.12970830470704
H           -2.00106624058207        0.06342157551485        1.88585208608833
H           -2.91037837143628        2.39482055785372       -2.10734936655868
H           -1.50360907468119        3.21556513663396       -1.42085286174962
H           -1.64738336737265        0.21179858038445       -1.85068468544311
H           -1.02101288078340        1.40187551027589       -3.00311788857972
H           -0.69491189109659        2.59315426195032        0.58342415949091
H            0.82030455158078        1.94833697641250       -1.26421333126494
H            2.22256303833848       -0.67599550492892        0.64156039700658
H            2.39021250864045        0.94061720067488       -0.05756726725347
H            2.90827251291455       -0.08821949263165       -2.27266481600035
H            2.79807031230489       -1.68866290187857       -1.53356144226424
H            4.73595789851887        1.45701797430367       -1.64742711180507
H            7.02695598385121        1.68842660620227       -0.82567458660114
H            8.70505092273593        1.79317010709853        0.81143182826361
H            9.30238312151570        1.09561320040801       -0.72149546697814
H           10.10672973381233        0.69896161733844        0.81335639916606
H            7.13581358849547       -4.24833905818082        1.76576392878014
H            5.51692599906618       -3.51731379632671        1.85623626140547
H            6.13481803402365       -4.14144834546303        0.29889670695369
H            4.51032495580884       -2.46190422731041        0.00068578776878
H           -0.11417806283184       -1.73166338075209       -1.73573793146387
H           -0.94270651585843       -1.23358065656619       -0.24626061314448
H            0.61493249442521       -2.08912205738248       -0.16079807057796
H           -4.98229358185713        2.83867160519016       -0.05822469632554
H           -3.65399570389444        2.12625809087482        2.55194909863582
H           -5.09022918782069        1.35299144759901        1.93077219783025
H           -5.26689728627939        2.95916722253831        2.61735084082523
H           -3.46726782674235        4.67174474275334        1.86462754096208
H           -3.44774224992777        4.93951021668269        0.13220424696060
H           -4.93023109127461        5.03417361318765        0.98751772485648
H           -1.12182350472384        3.19883438595568        2.77010385176153
