72
 energy: 17.791535720321 xtb: 6.6.1 (8d0f1dd)
N           -2.07171952422175        2.45315702101150        2.10131315564530
C           -1.75474909988902        2.66048725582146        0.77380343791810
C           -2.12353896087537        1.84736984049423       -0.22299119248893
C           -2.92963738100740        0.65103500096984        0.03752505287002
C           -4.02594418911192        0.31828702407405       -0.76994596399117
C           -4.79717856871432       -0.80011618634766       -0.51892731926805
O           -5.88288134926717       -1.18798120679298       -1.25874749638802
C           -6.30556270466941       -0.36287642900886       -2.30951629062582
C           -4.48046903893312       -1.64220463671138        0.57120470173499
O           -5.30092790000874       -2.72837744644608        0.73819461935564
C           -5.08023481952349       -3.58141439645782        1.83151450476893
C           -3.39509792509908       -1.31559098350594        1.36606236030610
C           -2.63538599033781       -0.18306701781111        1.10829188040880
C           -1.76496933896677        2.15943958243122       -1.64050897515796
C           -0.90951110143091        1.02958429793809       -2.26786835437044
C            0.44445736991991        0.91391256337562       -1.70185641810099
N            0.87004130026544       -0.11637369272095       -0.89239202622252
C            2.22652472559957       -0.11375430859995       -0.44488098402092
C            3.21156887870343       -0.78397114370034       -1.42661398989975
C            4.61302635958393       -0.63689760566898       -0.92654107800385
C            5.32974142838970        0.52161068232763       -1.16956496760086
C            6.61864459128344        0.67746080781922       -0.68046100719172
C            7.21245936963102       -0.32157996419116        0.06992940425514
O            8.47063052327181       -0.27485754753114        0.60310818752076
C            9.24625849230251        0.87362099420197        0.38209028459632
C            6.49155203351533       -1.50967396667704        0.32541085432084
O            7.16212371668299       -2.44199186881887        1.06530165502361
C            6.53550680844944       -3.66937541944538        1.33199814336075
C            5.20771037668763       -1.64700388097473       -0.16807080089788
C            0.14886053852576       -1.36029975150457       -0.85069399977654
C           -5.07604116579201        3.10097873723047        1.25179998954719
C           -5.12770765014539        2.18088000945349        2.19869064008744
C           -4.84065131097465        4.53461901578703        1.49629579611433
H           -4.29070325508910        0.96869663747276       -1.58758944933738
H           -6.56817856113968        0.63569097890879       -1.94330204610269
H           -7.19633673744633       -0.83505080385529       -2.72128896487528
H           -5.54437936047939       -0.27624697203525       -3.09486610399605
H           -5.14583221906229       -3.04446957777899        2.78335069147571
H           -5.87255808699581       -4.32900801610141        1.78708504569008
H           -4.10889425471387       -4.08384915747151        1.76865269862210
H           -3.12157478263672       -1.94349442549371        2.19951153601690
H           -1.79044999765306        0.04562773081844        1.73819811838693
H           -2.66635200446071        2.26672436316718       -2.25654949722248
H           -1.22695048309344        3.10730136166341       -1.67742214103323
H           -1.47569773992294        0.10135977745800       -2.18248438083754
H           -0.80196514116506        1.28772023980617       -3.33377852052139
H           -1.17545474958733        3.54665279912442        0.58514236412840
H            1.04189047908514        1.80619781492771       -1.66668403589747
H            2.28324344195364       -0.63414896445867        0.51613586604385
H            2.53608348702795        0.92050520582017       -0.27701700094362
H            3.10380668585425       -0.30115301576413       -2.39858959225908
H            2.94586256665055       -1.83616320409396       -1.53308506549935
H            4.88888827039492        1.31229898445700       -1.75808273714855
H            7.15285110850315        1.58973768903597       -0.89392163144831
H            8.77976734461305        1.76932015131732        0.80537840797881
H            9.43981356890535        1.03495260197364       -0.68409836329703
H           10.19016737584184        0.68735268196987        0.89326377352639
H            7.25839792220307       -4.24740766960535        1.90601521147924
H            5.62640142455887       -3.54036750280985        1.92902628401748
H            6.29309353002438       -4.20980499864877        0.41031942334696
H            4.65001220674936       -2.55182873655161        0.01975817126330
H            0.06086539407810       -1.83026931213805       -1.83926405969693
H           -0.85447274440396       -1.20189467462784       -0.43947873311229
H            0.68143284866569       -2.05088582761283       -0.19692330467006
H           -5.26331288264300        2.85437197097199        0.22973685106213
H           -2.95578751079525        1.97479597006442        2.19220511715274
H           -5.31766540184643        1.14905118623878        1.96247652048158
H           -5.06599670420005        2.45930703196980        3.23588124335952
H           -4.70289662091751        4.65627763985701        2.55899588969138
H           -3.99431785902066        4.99370336618415        0.98165215377667
H           -5.74495000143461        5.05565568205334        1.17029853377124
H           -1.99635345368864        3.27711761960582        2.66351145212604
