72
 energy: 12.271164872238 xtb: 6.6.1 (8d0f1dd)
N           -1.84943048915807        2.90614220264811        2.24080409640099
C           -1.66281776863380        2.46246936153129        1.07577481669120
C           -2.75129755660370        2.14144084962140        0.09322386075055
C           -3.20705255122572        0.69208982895209        0.22447803205378
C           -4.21734522982959        0.27804284452266       -0.64703169136339
C           -4.83400054188846       -0.95081907615131       -0.53284182997259
O           -5.85164806579208       -1.39466276111703       -1.32873995889262
C           -6.36801491911260       -0.52645496257962       -2.30007284432748
C           -4.42999510823737       -1.84427340604907        0.48272007298606
O           -5.10888817813340       -3.03030951232532        0.52426139793366
C           -4.80588255913928       -3.93450714371462        1.55367511228649
C           -3.41280321870747       -1.45522542676492        1.33424574254081
C           -2.80949683701691       -0.20209664244955        1.20748219344034
C           -2.12932470377208        2.31363519093531       -1.34481248445097
C           -1.17622653556487        1.18542667131622       -1.86179728107847
C            0.14816409979822        1.11192200518995       -1.18605866076083
N            0.71889287986172       -0.07751297264376       -0.68214147185959
C            2.07949074398696       -0.07699792775055       -0.24998118587289
C            3.03077099506685       -0.62230025418334       -1.33270564682833
C            4.44719245800385       -0.50021238615459       -0.87891020936711
C            5.16288960251138        0.66391003444328       -1.08843242366659
C            6.46549134512997        0.78961748868005       -0.62588011688452
C            7.07010297806502       -0.24585324053346        0.06389523590795
O            8.34283464195419       -0.23206446289149        0.55432226198883
C            9.12837487334728        0.91094160362654        0.33966066270346
C            6.34499649785740       -1.43512171106456        0.29564026711637
O            7.02202899596204       -2.40359472624599        0.97698471804843
C            6.38737402508106       -3.63232720784784        1.21413719659728
C            5.04871637724488       -1.54216078023372       -0.17215190357298
C            0.01864825794442       -1.33569123300640       -0.69497175726363
C           -4.14002759358136        2.97429285990878        0.67402766421815
C           -4.57167693864892        2.40069857237122        2.02552289725560
C           -3.86686602494967        4.48840606518397        0.84745818600288
H           -4.54345956614347        0.95901898322126       -1.41222499308326
H           -6.75961227962944        0.38931295364711       -1.84601020056438
H           -7.18404892199105       -1.06763452778092       -2.77657592679654
H           -5.62025626147210       -0.26657178699401       -3.05566957513258
H           -4.97209979895502       -3.49230943150758        2.54003942579855
H           -5.48726933846710       -4.77333836267796        1.41762775823972
H           -3.77210827312583       -4.29119266088990        1.49314202042140
H           -3.08435374993818       -2.11700735329451        2.12254975130287
H           -2.03531422165072        0.05696043409647        1.91293720348479
H           -2.93984406019378        2.39990876200886       -2.06262242875147
H           -1.53784566580631        3.22765159171127       -1.37279986821800
H           -1.67807152512313        0.22110946297354       -1.79385366268188
H           -1.03768313914360        1.40073029189034       -2.93934972022446
H           -0.67155852010223        2.37909958509790        0.61542348951633
H            0.78679899673688        1.97007694302385       -1.19303548868533
H            2.20177452405991       -0.67563146442609        0.66405848530975
H            2.36904729840467        0.94860102670665       -0.01946475730939
H            2.87496939570739       -0.05372582432898       -2.24931404418427
H            2.77160054162199       -1.66357905849655       -1.52922841259417
H            4.71007423325308        1.48078963197820       -1.62841405290469
H            7.00440145498020        1.70427766919814       -0.81628467355579
H            8.69292737841653        1.79718589502229        0.81218661189662
H            9.27948293881559        1.10539902866584       -0.72750016391559
H           10.09121583269726        0.69800776911667        0.80104763762863
H            7.11717147860570       -4.24644503093440        1.74094259238769
H            5.49913383997312       -3.51453804210306        1.84349056677299
H            6.10901563475942       -4.12993852450397        0.27959868205872
H            4.48609871667895       -2.44724487171372       -0.00100808716640
H           -0.13705850344885       -1.70742059593290       -1.71602712080928
H           -0.96000270692673       -1.23749837747788       -0.21547854991123
H            0.59975878212451       -2.08383855630741       -0.14910111809784
H           -4.91006436710900        2.86641467060759       -0.09251069267857
H           -3.64795795399578        2.29408051838273        2.59663572823039
H           -5.03976044864869        1.43826403666161        1.94765212104593
H           -5.28057799846189        3.08112833655125        2.51596911534684
H           -3.27331150943374        4.67875607181588        1.73896142276387
H           -3.35083075362041        4.91523728933485        0.00088290567053
H           -4.77751704833733        5.07083067380913        0.94851481535233
H           -1.01334955389591        3.08812989397941        2.77562828670764
