72
 energy: 52.418028906214 xtb: 6.6.1 (8d0f1dd)
N           -1.97313641987980        2.76211151018585        2.19856656671889
C           -1.68545281934473        2.61356442432054        0.97232468309481
C           -2.54002851898162        2.04588038893806       -0.04768012390072
C           -3.11394077762434        0.70436536573999        0.15114430086123
C           -4.15201198631965        0.29526320394687       -0.69967601793748
C           -4.82264006981576       -0.89554423380049       -0.53248717852285
O           -5.86447421524747       -1.32345222167571       -1.30947185287488
C           -6.34610608796020       -0.46688749886160       -2.30559886439155
C           -4.45102492394344       -1.77056040734151        0.51318153265043
O           -5.18448099050578       -2.92786588807720        0.60295990169731
C           -4.90613469840102       -3.81140516205627        1.65601439789960
C           -3.40572517330303       -1.39759639083653        1.33856075543727
C           -2.75159461149967       -0.17754593604787        1.16670523843534
C           -2.01548853748506        2.26905417589239       -1.45982919450295
C           -1.07680613003171        1.13033033448704       -1.99477009943186
C            0.26244001225327        1.02185456811203       -1.37656368444075
N            0.78881053057323       -0.11197472956186       -0.79710483901965
C            2.14034044315116       -0.10112303215597       -0.32293910633230
C            3.10000705576142       -0.68025738791946       -1.37176322868949
C            4.51160976089046       -0.54903853090513       -0.90175499578186
C            5.22486417676909        0.61439236858099       -1.11910176710175
C            6.52225757879402        0.75072146698281       -0.64318628680751
C            7.12262185324453       -0.27259267664275        0.06842921779796
O            8.38987341051069       -0.24764146664693        0.57198680777818
C            9.17115295719697        0.89830844747038        0.35491277769273
C            6.39858467392532       -1.46150111819506        0.30818665262965
O            7.07170690740390       -2.41825629131024        1.00899176561977
C            6.43915891695113       -3.64619213702126        1.25766038601253
C            5.10729637640108       -1.57888626075500       -0.17358900464002
C            0.06526832542283       -1.35697220156503       -0.75532973426073
C           -4.45214276348572        2.98893278022590        0.86249841738195
C           -4.63667543153366        2.14872603737403        2.08498048538529
C           -4.21268437685524        4.46662528463438        1.08394305566284
H           -4.45645143894691        0.96671556886423       -1.48167403132412
H           -6.69181459903226        0.48024749471702       -1.87861323478194
H           -7.18974801811639       -0.98287803726849       -2.76169844177857
H           -5.59077603686790       -0.26513248211715       -3.07192603715654
H           -5.03628764035931       -3.33130443867545        2.62977262715945
H           -5.62661930056760       -4.62362499780003        1.55956158759072
H           -3.89010714006381       -4.21737675274809        1.59441135946140
H           -3.09289077388143       -2.04948807165806        2.14190971126909
H           -1.95129638127460        0.07085940108288        1.84632173383990
H           -2.84775493324469        2.36682300874975       -2.16134577854097
H           -1.44095004393491        3.19289102319683       -1.49749545296179
H           -1.60156594016097        0.18497116704990       -1.93201584058939
H           -0.94452530825772        1.38872048245671       -3.05269296495219
H           -0.73340829308172        2.95309687001362        0.53568713929873
H            0.87254052194187        1.91278995399160       -1.37321217590117
H            2.25114311964027       -0.67300139798820        0.60647361935082
H            2.42412746841348        0.93069980811599       -0.11434791915053
H            2.95856214107064       -0.14009216168930       -2.30744376514067
H            2.83722561277669       -1.72572923215680       -1.53858484206682
H            4.77467853917093        1.42149415402407       -1.67575626170865
H            7.05997188045681        1.66458192256102       -0.84051357964638
H            8.72345214062003        1.78677722092278        0.81074727168830
H            9.33672934902038        1.08086738399155       -0.71211957479983
H           10.12913107106307        0.69865862866666        0.83231993019553
H            7.16455447738053       -4.25017922287149        1.80217144580651
H            5.54384160431283       -3.52195631316986        1.87517138423180
H            6.17357814513763       -4.15870544006995        0.32753704977650
H            4.54585500988389       -2.48360045794222        0.00414051679498
H           -0.07777670989303       -1.76478683230964       -1.76341041947351
H           -0.91845803507629       -1.22481489498544       -0.29239696256370
H            0.63303290664403       -2.08075434820200       -0.17348607370481
H           -5.07866307774759        2.80394603657998        0.00722006764956
H           -3.61118651710409        1.90036777317757        2.42083663764235
H           -5.17014093107791        1.24219999635052        1.90598900237647
H           -5.21019169064601        2.77022107631322        2.77400591201546
H           -3.76441174782644        4.66242751871416        2.05645471149084
H           -3.60176476809736        4.96063038238439        0.33601509589088
H           -5.15669419935675        5.00374206583219        1.05148803001055
H           -1.32679764122577        3.29012181186328        2.76939774182875
