72
 energy: -0.696521739815 xtb: 6.6.1 (8d0f1dd)
N           -1.70604810860818        2.85362899409495        2.25512659574477
C           -1.62479766643937        2.33717045351028        1.11163592872184
C           -2.77770050678587        2.13268725583859        0.15633104442469
C           -3.25614107264083        0.67928103633052        0.26760151955269
C           -4.25460941709164        0.26543962107588       -0.61631186705668
C           -4.83981949066915       -0.98200499637615       -0.53212595604397
O           -5.83951659571769       -1.43665567008265       -1.34279561010292
C           -6.37970416102188       -0.56235831453121       -2.29706802863390
C           -4.41592626039048       -1.88669255278522        0.46497404103087
O           -5.06051895401180       -3.09019038024716        0.47543506784721
C           -4.74547595014017       -4.00614060549269        1.49091561478409
C           -3.41723836139225       -1.49074857273026        1.33415368320111
C           -2.84415624450532       -0.22240612084636        1.23599396167185
C           -2.16397552036039        2.31406461825508       -1.27471822280885
C           -1.21690723540723        1.18649960483396       -1.77149677666035
C            0.08427655993698        1.12744389348806       -1.05252403155376
N            0.67795510204713       -0.06268446805184       -0.61377663372282
C            2.04512862072625       -0.06022485008129       -0.20689236040325
C            2.98826471082601       -0.58718817041416       -1.30842585927626
C            4.40847056189417       -0.47083735301333       -0.86188782508314
C            5.12514171560816        0.69314690213570       -1.06867699737814
C            6.43131041796355        0.81247442962192       -0.61554727939042
C            7.03852250512572       -0.22988486369863        0.06120571674915
O            8.31376838224953       -0.22315143406714        0.54285139099393
C            9.10273171419832        0.91818428208701        0.33068919972426
C            6.31258251027016       -1.41977637473594        0.28882443651414
O            6.99199538374424       -2.39469091124236        0.95712087904542
C            6.35641843659099       -3.62438977406062        1.18771370806003
C            5.01271550533406       -1.52046691474257       -0.16899219456395
C           -0.01218250196413       -1.32225029157838       -0.65904802708396
C           -4.03607388439717        3.01090670933992        0.61677602471182
C           -4.54139758723670        2.56325727592180        1.99075171667045
C           -3.66841210913944        4.50676805861456        0.71769204918611
H           -4.59323989262872        0.95300622834396       -1.37118785955734
H           -6.79767500852119        0.33351655773568       -1.82689890543318
H           -7.17956701455862       -1.11817826339647       -2.78400852716558
H           -5.63920301033142       -0.26762557597673       -3.04748480692718
H           -4.93381840490132       -3.58794331748887        2.48427410845118
H           -5.40435245215335       -4.85791416428458        1.32922826055813
H           -3.70283611600512       -4.33677707597984        1.43331945816224
H           -3.07785568497420       -2.15899782092567        2.11157560151681
H           -2.08329466809186        0.04436678721096        1.95280881288754
H           -2.97809758111171        2.39770886262917       -1.99034728645925
H           -1.58492772245593        3.23702921118646       -1.29765606710055
H           -1.73091717784769        0.22793495352314       -1.71524028450029
H           -1.03611868150419        1.39149723860291       -2.84038586675598
H           -0.67067658436169        2.05745184377965        0.64324969728492
H            0.72768770212082        1.98350024951882       -1.08573406125618
H            2.16909835410953       -0.67297354876875        0.69574732264912
H            2.33704573327169        0.96228963410881        0.03652913153395
H            2.82662507449470       -0.00216365070427       -2.21404145339372
H            2.73188369652989       -1.62585748454203       -1.52182237918277
H            4.67146365183067        1.51591509843820       -1.59934184523579
H            6.97023278393036        1.72750601490101       -0.80357898275795
H            8.67494294168323        1.80281349918008        0.81362827970284
H            9.24555543142419        1.12026086397268       -0.73623079898771
H           10.06757962709514        0.69544179473397        0.78315842970175
H            7.08989914141134       -4.24299472388144        1.70361409195128
H            5.47263144877384       -3.51095074524143        1.82439238434282
H            6.07031327162622       -4.11353788622412        0.25085962739697
H            4.44958406019412       -2.42604108937539       -0.00278520649622
H           -0.17314035967131       -1.67109611864979       -1.68724191062009
H           -0.98616196220824       -1.23970030090638       -0.16931453816478
H            0.57804065797091       -2.07347044194824       -0.13176829873739
H           -4.80904193984101        2.90922575369724       -0.14349500205259
H           -3.66978956134029        2.56248911764607        2.64451600069789
H           -4.96939227189070        1.57356016590623        1.96879767971119
H           -5.30315613624409        3.25659933751557        2.35951863088339
H           -2.98210218167631        4.67817282872931        1.54271725050026
H           -3.21511809278255        4.87119273201771       -0.19268608507171
H           -4.54250035709635        5.12627754311933        0.89345382552597
H           -0.83751200040155        2.93472832598512        2.76534397402503
