72
 energy: 35.753469928504 xtb: 6.6.1 (8d0f1dd)
N           -1.92813521098853        2.86450446019901        2.21077498537282
C           -1.68097001691075        2.55989738697583        1.01704265415118
C           -2.66413832093550        2.10542013608029        0.01583622455909
C           -3.15348183605068        0.69732080052398        0.18124719292624
C           -4.17874261066889        0.28833442513030       -0.67820646139949
C           -4.82706274977127       -0.91890772292430       -0.53327496572081
O           -5.86127185059958       -1.35169171954416       -1.31608700989737
C           -6.35531525864484       -0.49043556248961       -2.30347949451855
C           -4.44264694948084       -1.80089558106362        0.50087459538362
O           -5.15436872929017       -2.96865933575270        0.57204093620168
C           -4.86588136836227       -3.86101085692064        1.61572433835088
C           -3.40789146064403       -1.42132670102946        1.33603533699919
C           -2.77410196027989       -0.18674342811971        1.18210163043320
C           -2.07356521157530        2.29400277831478       -1.41613998472087
C           -1.12367584188955        1.16447605836842       -1.95490650477586
C            0.21222318625664        1.06129088855294       -1.30570449583628
N            0.76603256048357       -0.10547009317444       -0.75338282185667
C            2.11669864201387       -0.09302240488720       -0.29387164129046
C            3.07419984128016       -0.65739905572180       -1.35668620968425
C            4.48646588111874       -0.52986799579436       -0.89386842499434
C            5.20064379288811        0.63433487506213       -1.10710342887620
C            6.49981281200042        0.76636838746017       -0.63613201530321
C            7.10173445288825       -0.26204816004530        0.06667062673778
O            8.37180474212287       -0.24136812890164        0.56530906287023
C            9.15411462892594        0.90345325695902        0.34875730335529
C            6.37737803960328       -1.45088694495712        0.30311703581223
O            7.05215729915371       -2.41275747314978        0.99659628569299
C            6.41842863839648       -3.64066531896063        1.24041126775463
C            5.08439983891918       -1.56432579532719       -0.17339492582201
C            0.04835589723794       -1.35218012744742       -0.73114506158339
C           -4.29958457570808        2.96844549868190        0.76317204915984
C           -4.60901234982090        2.24573993016945        2.05876929354742
C           -4.06943679411345        4.47144970373979        0.98351169880977
H           -4.49063746875074        0.96348290071856       -1.45408448830441
H           -6.71945659821673        0.44452778688421       -1.86567684372557
H           -7.18799997324323       -1.01671595902050       -2.76768087082796
H           -5.60256524260645       -0.26583438160501       -3.06544228279024
H           -5.01035549604685       -3.39563269911451        2.59452285442021
H           -5.57074476114658       -4.68436342425254        1.50383301748744
H           -3.84248459041543       -4.24660796009056        1.55374345642089
H           -3.08930223464710       -2.07655304872217        2.13395774297232
H           -1.98459059279932        0.06595045930767        1.87264382957671
H           -2.89183965799879        2.38795671634085       -2.12715898338439
H           -1.48563345716375        3.21020852657633       -1.44783422916655
H           -1.63143148193663        0.20524647523488       -1.87938974686413
H           -1.00656286324824        1.39797535911790       -3.03591754653341
H           -0.70287958564210        2.71129052278572        0.56406662124491
H            0.83743774005590        1.93668124602006       -1.29992661143984
H            2.23257560351752       -0.67543176395966        0.63035133836976
H            2.40104969191157        0.93711159573037       -0.07674593530402
H            2.92500009398984       -0.10530074427266       -2.28418642493627
H            2.81133007260074       -1.70094385671330       -1.53546628091112
H            4.74908102076482        1.44518318079087       -1.65702217498075
H            7.03823040579032        1.68051767952487       -0.83038939777930
H            8.71112098586430        1.79111338092318        0.81112178775259
H            9.31374620511233        1.09070299533853       -0.71844269821087
H           10.11435519565644        0.69919038506551        0.81955443094157
H            7.14524095100818       -4.24915197450328        1.77800585467135
H            5.52582965837552       -3.51882468874237        1.86255445152183
H            6.14770968141242       -4.14718725606020        0.30846237542862
H            4.52227755351386       -2.46910032764254        0.00162729532369
H           -0.10284765962364       -1.74342471274419       -1.74528705387337
H           -0.93386281031908       -1.23122949080804       -0.26144227254077
H            0.62181564065077       -2.09112500124122       -0.16646055470757
H           -5.02052804588867        2.82771355184779       -0.03832485623041
H           -3.63399037598332        2.05052923064928        2.51078916181063
H           -5.11133820060558        1.31176805094646        1.92374494704784
H           -5.25633619012366        2.89278817980790        2.67220836734239
H           -3.56534739865678        4.66842864458839        1.92862559802701
H           -3.49732755561654        4.94850079277522        0.19969164249794
H           -5.00518495472408        5.02232437992251        1.00794930276911
H           -1.18063078607915        3.23746518568828        2.77580290385053
