72
 energy: 18.679653586122 xtb: 6.6.1 (8d0f1dd)
N           -1.89697669156004        2.92636285113447        2.23110333772989
C           -1.67571086533863        2.50279304663443        1.06336266567466
C           -2.73488837494650        2.13937583066134        0.07211226422460
C           -3.19018718424032        0.69626169057010        0.21072966409120
C           -4.20427050763453        0.28230975030378       -0.65728270691800
C           -4.83150127127096       -0.93992363026761       -0.53326319369452
O           -5.85478493862419       -1.38000246016881       -1.32461929144887
C           -6.36392195685147       -0.51411051830259       -2.30134404606968
C           -4.43434896026916       -1.82969244243819        0.48851838217439
O           -5.12440418681089       -3.00959824768722        0.54026335415949
C           -4.82596052124750       -3.91004295219252        1.57436804230551
C           -3.41094875121486       -1.44355109152581        1.33417577903175
C           -2.79760477623664       -0.19596337811944        1.19830270878294
C           -2.11483471676448        2.31161342575384       -1.36792417610704
C           -1.16112013372717        1.18240367463371       -1.89214953411953
C            0.16803836954760        1.10102577475055       -1.22575427083292
N            0.73353449181713       -0.08493813708038       -0.70606311610668
C            2.09126292105105       -0.08241335983894       -0.26472268002327
C            3.04512028149597       -0.63407764889411       -1.34075873329336
C            4.46016789598077       -0.51013766358129       -0.88407046210786
C            5.17544863993459        0.65404284258659       -1.09469672722088
C            6.47688964819401        0.78187627835078       -0.62926758514337
C            7.08064138994750       -0.25126416194957        0.06483434089581
O            8.35255069995036       -0.23511842262564        0.55804986623133
C            9.13693152405532        0.90849904893313        0.34264783641376
C            6.35580802657737       -1.44037942972113        0.29806244548466
O            7.03208935741136       -2.40670117594383        0.98355320332654
C            6.39769978773634       -3.63511655466655        1.22288090562966
C            5.06066085014730       -1.54957472673102       -0.17274444240710
C            0.02859876338962       -1.34067262846639       -0.70723203881570
C           -4.18313269094179        2.96665833123166        0.69660700163157
C           -4.58254285836876        2.34754551256157        2.03723099230907
C           -3.93445722939097        4.48200637364176        0.89021269831240
H           -4.52553436511117        0.96091632794147       -1.42644478280478
H           -6.74645618355436        0.40811845397476       -1.85262691905330
H           -7.18556366681045       -1.05044931638287       -2.77366818963129
H           -5.61446567035050       -0.26601073817730       -3.05914094893579
H           -4.98480071791278       -3.46012183083250        2.55831587217551
H           -5.51504602069038       -4.74404582884725        1.44665708056906
H           -3.79551200031935       -4.27611679286311        1.51309138576853
H           -3.08612606736716       -2.10331537299498        2.12585727609368
H           -2.01820710736632        0.06004976951473        1.89923086005762
H           -2.92595142215181        2.39830279514078       -2.08505563555486
H           -1.52130819835225        3.22352166035721       -1.39756410576684
H           -1.66188254371838        0.21779451937521       -1.82169898296591
H           -1.03116371906420        1.40263240985266       -2.97133231176423
H           -0.67923493180016        2.48669250255934        0.60524330285704
H            0.80487354507871        1.96161450836679       -1.22862248189712
H            2.21196208674270       -0.67619246254937        0.65277428553859
H            2.37978039455954        0.94436216099523       -0.03820800356113
H            2.89149515912477       -0.07095814342860       -2.26098686992179
H            2.78483245803174       -1.67615778559761       -1.53148188050188
H            4.72302792661948        1.46890747727706       -1.63798237738532
H            7.01567904783617        1.69638289575997       -0.82082644606515
H            8.69894086541088        1.79523657436028        0.81175851406139
H            9.29082208902181        1.10050470313967       -0.72455792251245
H           10.09899739610943        0.69863268587848        0.80709305594758
H            7.12639399735980       -4.24750988244615        1.75331086183993
H            5.50798250071073       -3.51591936519510        1.84980286310984
H            6.12189628515224       -4.13563919341707        0.28916452735754
H            4.49825176839164       -2.45458170221643       -0.00028210341189
H           -0.12550333146393       -1.71952175393157       -1.72587008798902
H           -0.95133148112461       -1.23599664820435       -0.23087377958824
H            0.60733569932749       -2.08640845940884       -0.15523173333707
H           -4.94603720718916        2.85109073184255       -0.07459253742237
H           -3.64328633165543        2.20612787321130        2.57747642713333
H           -5.06336643743345        1.39487648890586        1.94051555324812
H           -5.27217634941123        3.01989057085515        2.56725985697054
H           -3.37157348927850        4.67688862764092        1.80107252543838
H           -3.39961585648514        4.92816547353277        0.06520900560575
H           -4.85551293932990        5.05182709565261        0.96634318844393
H           -1.07328854353566        3.14568673026916        2.77377361572203
