72
 energy: -5.221982914933 xtb: 6.6.1 (8d0f1dd)
N           -1.59954439434827        2.81699299751116        2.25098966771963
C           -1.58827135569892        2.24578114836354        1.13280103679247
C           -2.76366315549685        2.09870488812680        0.20176500424710
C           -3.28506039321074        0.66424664439420        0.29638741750689
C           -4.27821961454579        0.25616172187850       -0.59624114934729
C           -4.84415309564278       -1.00195319264710       -0.53129838759827
O           -5.83029267440195       -1.46288070100704       -1.35299290838361
C           -6.38774141763814       -0.58514608775732       -2.29549262638033
C           -4.40728939950404       -1.91463444632183        0.45375715700731
O           -5.02697525875594       -3.12929527563984        0.44298516018611
C           -4.70439680618087       -4.05352827625327        1.44931740506285
C           -3.42036672344296       -1.51683376977591        1.33472938617657
C           -2.86587582379390       -0.24111386928644        1.25591997542705
C           -2.17972993886197        2.30816191322601       -1.22830303090108
C           -1.24066022350721        1.18407235855114       -1.71721640399673
C            0.04304968282123        1.13156337916266       -0.96937635257400
N            0.65331128102663       -0.05315216705741       -0.58076832388984
C            2.02248089831284       -0.04716307483817       -0.18050216673105
C            2.96041686524942       -0.56377501126651       -1.29273122816556
C            4.38285200538328       -0.45153874605350       -0.84930739427879
C            5.09989460465002        0.71244005201494       -1.05501686340779
C            6.40845156159800        0.82757636382221       -0.60878863504902
C            7.01723900924564       -0.21921743444041        0.05956315764830
O            8.29416582541885       -0.21710141677146        0.53530917374179
C            9.08553803935798        0.92317573415231        0.32490169366143
C            6.29074807880508       -1.40991797322623        0.28469504246067
O            6.97207733193768       -2.38879378470130        0.94404348332566
C            6.33626242929150       -3.61944806567123        1.17028853497377
C            4.98836104702468       -1.50655401483713       -0.16571357352353
C           -0.03197599173957       -1.31256629597000       -0.63789912648096
C           -3.95553514953681        3.04363395569502        0.59608179471606
C           -4.51946473367467        2.67113839504547        1.96789585475826
C           -3.53114561912183        4.51827726962700        0.63276611653313
H           -4.62527907761971        0.94944913886872       -1.34340647677200
H           -6.82341648632766        0.29679824700985       -1.81476605655956
H           -7.17653307528001       -1.15092533741584       -2.78897710045925
H           -5.65292517022753       -0.26732204600172       -3.04263943254815
H           -4.90810729270043       -3.65225500210668        2.44708825921332
H           -5.34755043082784       -4.91364806282595        1.27015738896023
H           -3.65628370651737       -4.36731048201344        1.39439992794386
H           -3.07467782906078       -2.18897454332220        2.10502851824394
H           -2.11468016384590        0.03346830991859        1.98003643947255
H           -3.00212132783912        2.39081178295197       -1.93723047367126
H           -1.61692552534450        3.24213610208951       -1.24918129155642
H           -1.76891238334435        0.23299493249006       -1.66805631939288
H           -1.02271598886645        1.38497667321338       -2.77678287536927
H           -0.67683988302134        1.84844923591299        0.65097324183546
H            0.68603616410946        1.98996838647396       -1.01420943384827
H            2.14353871082296       -0.67023350399494        0.71381334055139
H            2.31776658086581        0.97247432249539        0.07434066507969
H            2.79565157249417        0.03238650470129       -2.19107186837153
H            2.70512514850969       -1.60048860740611       -1.51661596068433
H            4.64615812624995        1.53903250156849       -1.58043096355704
H            6.94694715315450        1.74286979754102       -0.79604411658401
H            8.66310483583041        1.80674866881754        0.81495222403014
H            9.22295233425892        1.13031418154851       -0.74179279984171
H           10.05143222793922        0.69328353248697        0.77161954232255
H            7.07279744674378       -4.24009309994658        1.67889191611204
H            5.45545479302680       -3.50930974280146        1.81197338561728
H            6.04521142369917       -4.10330146468263        0.23196055636493
H            4.42494145163732       -2.41275940633501       -0.00376393947920
H           -0.19739268499509       -1.64703549526185       -1.66941559766159
H           -1.00161766889107       -1.24056190407332       -0.13839465030377
H            0.56781823110661       -2.06287141701031       -0.12446690868110
H           -4.73012004170833        2.93405332290815       -0.16536443896305
H           -3.70091656360696        2.73811285522299        2.68061290286372
H           -4.92199640208357        1.66574945073242        1.97682615004019
H           -5.31595377563077        3.36206486696336        2.24684590663722
H           -2.78850006929264        4.68223507347791        1.40772571314422
H           -3.12793263109822        4.84144781990615       -0.31868669315437
H           -4.38259011175985        5.15642581847097        0.85291353573070
H           -0.71682766782796        2.84509770068480        2.74926626305565
