72
 energy: 7.075953656430 xtb: 6.6.1 (8d0f1dd)
N           -1.80411330486707        2.88871647679530        2.24820679940774
C           -1.65206353074750        2.42168283415822        1.08840099666931
C           -2.76437182009174        2.13907194805636        0.11308737043725
C           -3.22342578995495        0.68699950317200        0.23850996617856
C           -4.22972737790516        0.27339126268181       -0.63703419072153
C           -4.83596613192346       -0.96163694419813       -0.53274407801974
O           -5.84789093955614       -1.40902347200321       -1.33332198763198
C           -6.37197012316404       -0.53860667754933       -2.29901535710743
C           -4.42532890100866       -1.85867165726886        0.47679659167569
O           -5.09310296761523       -3.05056676684049        0.50813240961125
C           -4.78570323819175       -3.95841643224863        1.53296529699544
C           -3.41442490061844       -1.46724046717793        1.33436327341328
C           -2.82109665406732       -0.20889532170248        1.21710334634207
C           -2.14206972083929        2.31384150758414       -1.32148507326593
C           -1.19030782067819        1.18650421985329       -1.83099606199903
C            0.12647299785251        1.11848774139659       -1.14032023488167
N            0.70503674274997       -0.07227314716930       -0.65836194576944
C            2.06804093201103       -0.07182736549657       -0.23529992961708
C            3.01661265509507       -0.61065897058303       -1.32463929167505
C            4.43432679694849       -0.49039988167335       -0.87347869800169
C            5.15037544598756        0.67368283992686       -1.08196146689622
C            6.45417683619756        0.79723547546237       -0.62248155142238
C            7.05967894183637       -0.24056542553843        0.06290453538843
O            8.33325723333476       -0.22911300187882        0.55042297982486
C            9.11989485850584        0.91335064140707        0.33654382468188
C            6.33428809569200       -1.43001106533856        0.29322371280613
O            7.01205956661384       -2.40066982121225        0.97029105958623
C            6.37699853530878       -3.62965768643966        1.20528751650457
C            5.03683180022565       -1.53489387721011       -0.17135982337105
C            0.00831034847326       -1.33116940692468       -0.68267210269340
C           -4.10829283578787        2.97640880582737        0.64743208029561
C           -4.56315204212030        2.45309891016960        2.01237022328311
C           -3.80183028254306        4.49072457431708        0.80273310446920
H           -4.55966682434678        0.95677210815890       -1.39871978946230
H           -6.77238845708144        0.37066246876263       -1.83958112135636
H           -7.18265799359254       -1.08469818822041       -2.77901170765034
H           -5.62652740073394       -0.26707418344575       -3.05292923035442
H           -4.95913060485104       -3.52395175695512        2.52168319241532
H           -5.45949369081305       -4.80182708116999        1.38865855010573
H           -3.74878592377279       -4.30602329042439        1.47319762014222
H           -3.08244737922150       -2.13111704187242        2.11915544861775
H           -2.05139951741238        0.05290034915827        1.92635457471416
H           -2.95290648878619        2.39996314555532       -2.03923719108896
H           -1.55400044915652        3.23078649422368       -1.34702316331823
H           -1.69518128408877        0.22360345951587       -1.76673438647266
H           -1.04017406592094        1.39811943452691       -2.90623368428781
H           -0.66916452881486        2.27135541209668        0.62596510628216
H            0.76759891485519        1.97524924984734       -1.15730821408624
H            2.19127788856365       -0.67520805080889        0.67507640295159
H            2.35830723338485        0.95277407545266       -0.00074464188943
H            2.85877757759120       -0.03655673823512       -2.23758029259587
H            2.75841838456666       -1.65107189015916       -1.52692758054252
H            4.69722978582759        1.49252898193983       -1.61876921094609
H            6.99317646678173        1.71200467790868       -0.81197301948340
H            8.68695197591590        1.79906808998892        0.81249476868393
H            9.26823086004954        1.11032029175185       -0.73055248180773
H           10.08346832821502        0.69730879330939        0.79492057639782
H            7.10787475501845       -4.24544694884180        1.72851224320700
H            5.49022930198651       -3.51317720954457        1.83704015000865
H            6.09603589427794       -4.12440949451476        0.26996594816761
H            4.47405321071340       -2.44013506040845       -0.00180596673579
H           -0.14915866736807       -1.69522340112186       -1.70625030530593
H           -0.96889788171846       -1.23800271602055       -0.20006434314075
H            0.59186295429294       -2.08096155692777       -0.14279532813636
H           -4.87970949068043        2.87829641615389       -0.11429465549071
H           -3.65460148443018        2.38280678804718        2.61167375462250
H           -5.01810439405520        1.48141538034415        1.95598378216133
H           -5.28897313692038        3.14142422309909        2.46298343741533
H           -3.17630028407675        4.67535114879067        1.67356423175233
H           -3.30425742147908        4.89943064068492       -0.06394967259428
H           -4.69886139728864        5.08917374192971        0.93042977143923
H           -0.95550772493665        3.03543634920977        2.77438349594534
