72
 energy: 14.982519182242 xtb: 6.6.1 (8d0f1dd)
N           -1.96622904300576        2.49590876557981        2.10551243071440
C           -1.70877842729457        2.68250000782987        0.75066666438427
C           -2.09065331218044        1.84156209103733       -0.22953157471238
C           -2.90372183544366        0.63971259641183        0.04088355063818
C           -4.00060432794050        0.31820356277957       -0.76872687891188
C           -4.78864151187993       -0.78738326640769       -0.51267502957879
O           -5.87802364795429       -1.16491579720073       -1.24705554140189
C           -6.29622682952728       -0.34400107807853       -2.30542275611980
C           -4.48852981347722       -1.62600003673805        0.58367180740668
O           -5.32716621788011       -2.69164909155371        0.76246680918373
C           -5.11799293840995       -3.52945201922538        1.86830285184730
C           -3.39956974317486       -1.31969226723086        1.37875036237536
C           -2.61967622831059       -0.20199990822798        1.11075108395864
C           -1.74044195132847        2.13749979051753       -1.66109916118313
C           -0.88384464482387        1.01625754374359       -2.29955666407915
C            0.44853660288052        0.92218437838884       -1.66637476609678
N            0.88085084496021       -0.13073545545619       -0.88818386945632
C            2.23883411369778       -0.12580931383898       -0.43985174423950
C            3.22643374520519       -0.80378992455193       -1.42677083693838
C            4.62997880703535       -0.65536387695779       -0.93128811094894
C            5.34866701868858        0.50088205779807       -1.18227768612819
C            6.63379664316503        0.66491483168903       -0.68867605117498
C            7.22546990995876       -0.32940943359056        0.06970776593410
O            8.48129604361494       -0.27984781686105        0.60357115762572
C            9.25732694153178        0.86864135954990        0.38536636048864
C            6.50524960842648       -1.51622023703453        0.32974577256049
O            7.17464626443752       -2.44507895148806        1.07129469395838
C            6.54861067525669       -3.67039975846605        1.34527265947238
C            5.22384092283048       -1.66046223132181       -0.16590007262612
C            0.15926582333521       -1.37232069542995       -0.85204439947293
C           -5.16181436594789        3.14734770418199        1.27853800991026
C           -5.22273835436207        2.19102351327911        2.18234069175378
C           -4.93361346874694        4.58598499929184        1.56825077839221
H           -4.25228913599665        0.96161128543636       -1.59764634180234
H           -6.54284619081554        0.66487313568757       -1.95704547636981
H           -7.19371434324784       -0.81295474458582       -2.70683747430740
H           -5.54045630424346       -0.27830592429361       -3.09588233007919
H           -5.16912624276859       -2.97921338488245        2.81508937172560
H           -5.92416336787795       -4.26185860337796        1.83812007763057
H           -4.15661674618314       -4.05157990263178        1.80625211223245
H           -3.14027587489282       -1.95145067093884        2.21480383044752
H           -1.76728885448737        0.01149236867232        1.73439966773919
H           -2.65403524178699        2.25295772113087       -2.24814512906825
H           -1.19013311104903        3.08039904447350       -1.70500175618384
H           -1.44204927130546        0.08414853116927       -2.22726031915648
H           -0.76323369349033        1.25905658302541       -3.36376077297973
H           -1.11483134396996        3.57809529314389        0.53013222512075
H            1.07019353951300        1.80267955491073       -1.64562249164096
H            2.28652538055002       -0.63711602470572        0.52690839669771
H            2.55846772532703        0.91074456807188       -0.29724221870892
H            3.11646536697811       -0.32713085962715       -2.40351368003150
H            2.96307908443652       -1.85786562270774       -1.52740022918362
H            4.91066170181823        1.28744963840370       -1.77808176995902
H            7.16770920120295        1.57536416984150       -0.90956409730594
H            8.78484646270804        1.76522765695339        0.80256265210972
H            9.45717760584628        1.02796749065171       -0.68007103939314
H           10.19791379159651        0.68644872547564        0.90249265672175
H            7.27166563859567       -4.24228881405622        1.92579715464921
H            5.63558261915698       -3.53936918481908        1.93650642604193
H            6.30930003930708       -4.21847397116851        0.42763751896040
H            4.66579878999464       -2.56380259139144        0.02752775221780
H            0.06552409277027       -1.84190616295508       -1.83991401780675
H           -0.84441104834956       -1.20518011426021       -0.45330499519864
H            0.68307549537053       -2.05908652263706       -0.19088491212621
H           -5.24715840690655        2.90352841220642        0.22703957787202
H           -2.80006938677085        1.95296445793437        2.29150835158716
H           -5.39978626072426        1.16511240858309        1.91223791814635
H           -5.14333401074997        2.42394517133948        3.23323290310329
H           -4.81860518784086        4.75756976431695        2.63564127436112
H           -4.03916312148536        4.92745907388728        1.05082549082094
H           -5.76883597517895        5.18553245790786        1.20310018479331
H           -1.93779063956256        3.33109996109302        2.66372414239295
