25
 energy: -42.136239260931 gnorm: 0.001828054851 xtb: 6.6.1 (8d0f1dd)
C            3.28547796723065        1.09648970071230        0.05540937112427
N            2.33327030282960        0.02089900988639        0.01292058003988
C            2.60395502028172       -1.28901493340523        0.04596319730798
N            1.44519200602447       -1.99719941860549        0.01222195657042
C            0.41062784087563       -1.11060768692856       -0.04392204112162
C            0.96327989128310        0.16768228950640       -0.04631644887885
C            0.16333035375528        1.34827125120823       -0.11168422307849
O            0.54136899309670        2.50298993424910       -0.12126388237281
N           -1.23973478415978        1.03249614937103       -0.17914860493847
C           -2.09376665704391        2.06389026276972       -0.27923527944190
C           -1.80440645056731       -0.27057958552496       -0.14050591832706
O           -2.99710275196449       -0.43389077262363       -0.16219234729104
N           -0.91943322321784       -1.34495912758052       -0.08167753023685
C           -1.45437660464283       -2.69224694335749       -0.04095388653583
H            3.81834963329853        1.09451799801187        1.00759321993416
H            4.01119259306034        0.99507437229658       -0.75180660348224
H            2.75132770741234        2.04009897185898       -0.05188571638305
H            3.58309700029061       -1.71979822588038        0.08917219605150
H           -1.67663508689968        3.05448575781886       -0.30310268644373
H           -3.14646945902774        1.86131848254191       -0.34503549368966
H           -3.98953182756693        3.47757683175118        1.53729561670376
H           -1.12497439258574       -3.20368491879578        0.86385223907479
H           -1.14439366514911       -3.25304021256561       -0.92360707195839
H           -2.54111365210978       -2.61826215886172       -0.03220362977771
H            1.38190075959601       -3.00426848625380        0.02128460505089
