25
 energy: 0.000000000000 xtb: 6.6.1 (8d0f1dd)
C            3.23720163006194        1.16630919979326        0.08434469647475
N            2.29877817382611        0.07527477071623        0.03981603040599
C            2.58028210190900       -1.21425402444508        0.03006176031096
N            1.43813958087363       -1.93419271955128        0.00098261760884
C            0.39035688448383       -1.05887472636071       -0.00790371836672
C            0.93510056364412        0.21347819449412        0.01709077491437
C            0.09450143893243        1.40504303904423       -0.00410947031874
O            0.49712751527797        2.54126714362870       -0.00342325688240
N           -1.25076640035757        1.06271879480407       -0.03085478223738
C           -2.21907211982101        2.15522099834493       -0.05001256985998
C           -1.81739487048744       -0.20012725993278       -0.04692818574614
O           -2.99983886758376       -0.37846417018721       -0.07008878229737
N           -0.92618586207120       -1.30210215599479       -0.03682761578324
C           -1.46982264913417       -2.64643102187190       -0.06029820460571
H            3.71247264356769        1.21471455160235        1.06488849150277
H            4.00791497605742        1.03430808813993       -0.67357694370751
H            2.69910007168542        2.09770118228144       -0.09130154882931
H            3.56654120610678       -1.63682992603973        0.04233140067262
H           -1.67107961066214        3.09322851271934       -0.02552706933167
H           -2.82428953597071        2.09428624779827       -0.95318082946668
H           -2.87644029173232        2.07745725625962        0.81450067533302
H           -1.17061996399332       -3.19584890659852        0.83242232437030
H           -1.14560257411436       -3.17511610292205       -0.95688275822323
H           -2.55549792440841       -2.55659984320617       -0.07459039797972
H            1.38130855184625       -2.94313852034425       -0.01389874181052
25
 energy: -2.261281933689 xtb: 6.6.1 (8d0f1dd)
C            3.28233446362722        1.16970496382678        0.05926652222694
N            2.31046870770759        0.10579472602837        0.01504701960423
C            2.59091951754716       -1.22306007900734        0.02360961162002
N            1.41897618239233       -1.93009230441487       -0.00105512205586
C            0.38767981628595       -1.04743690792928       -0.01047088781273
C            0.92451971128686        0.23315681526271        0.00682287503275
C            0.08192974932711        1.40023849828411       -0.00279334086095
O            0.46975127541098        2.56839971932540        0.00245221069577
N           -1.28018888192337        1.04987919751107       -0.02957370784811
C           -2.24866727426569        2.14061192156034       -0.04807280605574
C           -1.83817607515255       -0.20362568776187       -0.04728248661690
O           -3.03392909457598       -0.39163871301599       -0.06992049120309
N           -0.94329760618001       -1.29892999799274       -0.03604734882324
C           -1.47869589700942       -2.64355614611520       -0.05605525784820
H            3.76736979567625        1.19760799335778        1.01658230194350
H            4.19038294860945        1.03929568171541       -0.58602982993153
H            2.73896380638522        2.10634288318163       -0.09369463021509
H            3.56723902541014       -1.64922154490955        0.03924703031282
H           -1.69623175705695        3.07718362213553       -0.02307359487676
H           -2.85491246958203        2.08416317734467       -0.95197239598945
H           -2.90733090199148        2.06612197079558        0.81674912431093
H           -1.17774246829685       -3.19185313014131        0.83865791091344
H           -1.14793972263781       -3.17768703974924       -0.94900240918944
H           -2.56475361848200       -2.55828608766182       -0.07376111856874
H            1.35354543542410       -2.93408492945814       -0.01259528261728
25
 energy: 7.819884557110 xtb: 6.6.1 (8d0f1dd)
C            3.35471410556224        1.16153015226156        0.03211531494248
N            2.32777826881114        0.14033050026378       -0.02981506770808
C            2.59245956344548       -1.22247870594921        0.01015416553249
N            1.39512714684681       -1.91061711647017       -0.00484567509293
C            0.38340633599087       -1.02455687890609       -0.01613124767779
C            0.91564484299042        0.26503099498778       -0.01468216480108
C            0.06246023253370        1.39665382974288       -0.00357593522071
O            0.41451040260769        2.58733512482022        0.01403653384171
N           -1.32100742800640        1.03819328151248       -0.02806697282343
C           -2.29499875527169        2.12239361920808       -0.04499705457356
C           -1.86032979496672       -0.20773145973149       -0.04704848276260
O           -3.05994602517167       -0.41257983306729       -0.06983631764997
N           -0.96047533784729       -1.28939951788402       -0.03424308412939
C           -1.48632304495206       -2.63699065345272       -0.04848242530022
H            3.83858588580215        1.16303047057624        0.98097826904072
H            4.42160725690434        1.02650769363748       -0.47405880408421
H            2.82678951956831        2.11056072773259       -0.11034473854097
H            3.55826092079349       -1.65507714627151        0.03253665821122
H           -1.74449027017794        3.06048464294275       -0.01916510712008
H           -2.90379210142526        2.06615659400585       -0.94847367417447
H           -2.95641788556424        2.04606845981729        0.81871910411480
H           -1.18973056080593       -3.18345458186509        0.85041524474430
H           -1.15034779167635       -3.18073140926307       -0.93546928603807
H           -2.57367998245709       -2.55908322929417       -0.07275259012458
H            1.32240916440223       -2.91254695718210       -0.00993276645827
25
 energy: 15.062485930055 xtb: 6.6.1 (8d0f1dd)
C            3.42486954539597        1.14276039782726        0.02384938108505
N            2.34490339396090        0.15872801661096       -0.06418211487827
C            2.58728145628051       -1.21479390063562       -0.00594293068280
N            1.38397083965651       -1.89042578413936       -0.00937918097248
C            0.38073055457453       -1.00242532297401       -0.02320034167388
C            0.91652730130254        0.29198701025095       -0.03371995863027
C            0.04445455512678        1.40771255858151       -0.00541661735180
O            0.36531349592485        2.60540120756065        0.02365915497606
N           -1.34961738635490        1.03769302399463       -0.02826161294175
C           -2.33766865925445        2.10891259625333       -0.04446632086696
C           -1.87587622174439       -0.21061522145318       -0.04802414528547
O           -3.07387760292636       -0.43032384477337       -0.07151558182993
N           -0.96596088863325       -1.27904974016934       -0.03335645730159
C           -1.48696378733444       -2.62983549959851       -0.04025244581040
H            3.88613057778366        1.11655717905741        0.98437534090882
H            4.55298417054901        0.99969890667051       -0.42303620016666
H            2.93178106707013        2.11137065051711       -0.11581430487606
H            3.54888404899473       -1.65557673417574        0.02387125992332
H           -1.79992767195607        3.05357672223290       -0.01741948685957
H           -2.94796133610929        2.04513545659354       -0.94725149242670
H           -3.00146316861648        2.02310059940518        0.81737271543140
H           -1.19869427707195       -3.17082489085382        0.86484337163368
H           -1.14803373994887       -3.18157620475771       -0.92123749982078
H           -2.57543912630141       -2.55539751469997       -0.07188060055057
H            1.30586752756800       -2.89276106515329       -0.00658003488508
25
 energy: 16.550131938792 xtb: 6.6.1 (8d0f1dd)
C            3.46169400062407        1.12755290946360        0.02570136292293
N            2.35423176331488        0.16422138106573       -0.08319642881629
C            2.58185353242965       -1.20708368620142       -0.01863677213141
N            1.38232280777818       -1.87823138490733       -0.01222251438252
C            0.37925008692622       -0.98892777997323       -0.02760079130339
C            0.91881073774909        0.30643407773626       -0.04348513953020
C            0.03586978903725        1.41923721945859       -0.00688326259866
O            0.33884007971074        2.61520235635137        0.02938420853197
N           -1.36107187910530        1.04046922639494       -0.02960419418656
C           -2.35968351220531        2.10245230381530       -0.04598697270041
C           -1.88263720377658       -0.21174700149346       -0.04876278763535
O           -3.07784299553361       -0.43794084441529       -0.07348040543541
N           -0.96531762891603       -1.27270724991331       -0.03262240669875
C           -1.48421180757118       -2.62546215987463       -0.03434490918839
H            3.90543471546990        1.07774904963299        0.99312944833579
H            4.59485078356013        0.98261193727618       -0.41271749311358
H            2.99387196710901        2.10903188256336       -0.10722116057304
H            3.54305013963615       -1.65212937345279        0.01802213006644
H           -1.83493293886698        3.05381047406516       -0.01795156335308
H           -2.97031487509478        2.03108963518227       -0.94842334840396
H           -3.02456118143358        2.00797037031231        0.81463518778006
H           -1.20275093570776       -3.16075979287871        0.87591486195430
H           -1.14279712474405       -3.18171397835379       -0.91085114987102
H           -2.57308827580062       -2.55096499987953       -0.07170740113624
H            1.30134462334675       -2.88113596980252       -0.00405460238593
25
 energy: 15.606818644502 xtb: 6.6.1 (8d0f1dd)
C            3.46999883021686        1.12130186157211        0.02930295047704
N            2.35736261460757        0.16423612981992       -0.09336815482494
C            2.57904416078011       -1.20262374040676       -0.02602689765903
N            1.38373545845895       -1.87356728502793       -0.01284193674602
C            0.37869185527987       -0.98380111979759       -0.02897004077777
C            0.91989237503563        0.31110559697133       -0.04709652498568
C            0.03535355486057        1.42498497422175       -0.00855567795604
O            0.33043981099493        2.61879100176357        0.03248592674238
N           -1.36165961198562        1.04159483148492       -0.03129511539139
C           -2.36401018755402        2.10042678697213       -0.04755184371751
C           -1.88354344168060       -0.21203643881438       -0.04913633295468
O           -3.07713979049052       -0.43874617915638       -0.07430032306599
N           -0.96359525390285       -1.27062325692820       -0.03158974277585
C           -1.48187348133820       -2.62407061586752       -0.03140157790672
H            3.90752457916091        1.05601407807146        0.99771326090480
H            4.59080412361324        0.97889033960040       -0.41647978399751
H            3.01100276000105        2.10629255994281       -0.09632176386356
H            3.54079645998572       -1.64865105368311        0.01720652924457
H           -1.84536961459232        3.05470880296344       -0.01907383568952
H           -2.97456678215909        2.02609025223840       -0.94989652273270
H           -3.02886070697684        2.00250906953942        0.81285245823986
H           -1.20380236354770       -3.15635116082688        0.88127148031241
H           -1.13844116011771       -3.18188447391271       -0.90555596790412
H           -2.57074956930287       -2.54898721214657       -0.07202127454235
H            1.30118004858918       -2.87657514642161       -0.00231539228235
25
 energy: 14.761125083907 xtb: 6.6.1 (8d0f1dd)
C            3.46978409310721        1.11944633102640        0.03143829439387
N            2.35871950685665        0.16403398470259       -0.10426625453859
C            2.57785181380190       -1.20030899137156       -0.03226993489913
N            1.38476987113746       -1.87163712282006       -0.01254460076897
C            0.37851968817173       -0.98171342418377       -0.02926704350019
C            0.92010690040506        0.31299130637529       -0.05001353486942
C            0.03727528370909        1.42758178746990       -0.01025243543854
O            0.32738847981517        2.62099746156559        0.03460536624944
N           -1.36016882598731        1.04132981392699       -0.03281092124579
C           -2.36322882977898        2.09962305090287       -0.04875775461088
C           -1.88311764886592       -0.21224518843096       -0.04903447284829
O           -3.07616771173260       -0.43833911967018       -0.07419413687224
N           -0.96255831041414       -1.27021796850165       -0.02995988030169
C           -1.48043903679425       -2.62389351504701       -0.02938732513984
H            3.90448846065347        1.04120575906861        0.99998204530358
H            4.58199387231133        0.98087810097429       -0.41851284015277
H            3.01327247950892        2.10550920339455       -0.08682541383242
H            3.53985564905059       -1.64638147434098        0.01903258457752
H           -1.84656049479405        3.05471527430744       -0.02011041157038
H           -2.97381922898080        2.02474421528266       -0.95101978196789
H           -3.02773523519173        2.00096222908976        0.81183484463835
H           -1.20412067631317       -3.15489413188343        0.88432663204410
H           -1.13539332213320       -3.18226876981104       -0.90229292022493
H           -2.56922331687479       -2.54859456583582       -0.07203157024079
H            1.30072120726861       -2.87449564401846       -0.00063463803681
25
 energy: 14.390334881934 xtb: 6.6.1 (8d0f1dd)
C            3.46771365509584        1.11940588675816        0.03232759086159
N            2.35945662408194        0.16416381061341       -0.11636197222821
C            2.57768994219401       -1.19945506665269       -0.03848052776152
N            1.38523240021300       -1.87091572057813       -0.01182551197175
C            0.37858782894007       -0.98103598104726       -0.02899758658303
C            0.91996989919839        0.31375990785731       -0.05279940429818
C            0.03947735998398        1.42841441670334       -0.01158852120103
O            0.32654870582040        2.62213983619361        0.03557942803093
N           -1.35906756545781        1.04071699578599       -0.03390752700773
C           -2.36169027976283        2.09942955436455       -0.04966922816866
C           -1.88259584392107       -0.21234486273456       -0.04853332775127
O           -3.07567077096065       -0.43808780041923       -0.07357261142394
N           -0.96214731322227       -1.27042562452136       -0.02786530959504
C           -1.47972275390684       -2.62411587689979       -0.02776136738820
H            3.90025693608827        1.03047595318023        1.00096492773330
H            4.57725201214053        0.98565517730543       -0.41749172825931
H            3.01103486858664        2.10598105658375       -0.07871329006079
H            3.53955368981466       -1.64522086582636        0.02215023506747
H           -1.84486327958852        3.05438055432385       -0.02102430508246
H           -2.97240734795287        2.02486849433297       -0.95183462948598
H           -3.02589263126168        2.00115829203934        0.81118810544414
H           -1.20427779904573       -3.15496756158461        0.88623200023222
H           -1.13365038205870       -3.18255269356880       -0.90020384373478
H           -2.56842197455844       -2.54882994826037       -0.07154842346182
H            1.29984868747591       -2.87356933177676        0.00077072424136
25
 energy: 14.354644437120 xtb: 6.6.1 (8d0f1dd)
C            3.46570646847213        1.12007954506433        0.03259906535043
N            2.35969246949878        0.16435467909150       -0.12707444852667
C            2.57823165027748       -1.19956759312746       -0.04425177150354
N            1.38547377030939       -1.87093148851378       -0.01086791049203
C            0.37885951194481       -0.98130029463718       -0.02823344060458
C            0.91983834242294        0.31364928401208       -0.05472163067143
C            0.04102717147049        1.42819209932422       -0.01250321606370
O            0.32719632910785        2.62218903456956        0.03528357423415
N           -1.35874639142204        1.04035908187507       -0.03448772498395
C           -2.36060987230260        2.09971193710485       -0.05026113201711
C           -1.88218746799239       -0.21227672122973       -0.04789333017312
O           -3.07548629391776       -0.43815505745113       -0.07284968493731
N           -0.96203100685620       -1.27078598751712       -0.02569765346035
C           -1.47954855788194       -2.62435602941088       -0.02660148206283
H            3.89644496697001        1.02357029774772        1.00124393894977
H            4.57624228185656        0.99111703582531       -0.41527958144942
H            3.00758502704557        2.10682784790711       -0.07259137994995
H            3.53970153267755       -1.64474759418985        0.02592990487474
H           -1.84265812665338        3.05414621293187       -0.02177506350546
H           -2.97145087975183        2.02562885670619       -0.95233928730763
H           -3.02464769978207        2.00222909537080        0.81080014205414
H           -1.20429734886490       -3.15585331780480        0.88710981642430
H           -1.13319497714238       -3.18245467405486       -0.89925888278255
H           -2.56821084197966       -2.54914202020841       -0.07067231893093
H            1.29928461042985       -2.87345562721343        0.00142739368232
25
 energy: 14.448642031102 xtb: 6.6.1 (8d0f1dd)
C            3.46499105632407        1.12058391167166        0.03265165553648
N            2.35948779112293        0.16448346274273       -0.13195322773129
C            2.57883497083059       -1.19994086065813       -0.04784289839579
N            1.38563729753871       -1.87118125741248       -0.01014222206199
C            0.37912716671566       -0.98180914537058       -0.02739275061731
C            0.91986766614221        0.31317643239561       -0.05500227838213
C            0.04127213561241        1.42770108447874       -0.01287950256082
O            0.32815821359297        2.62170126703927        0.03439116269289
N           -1.35902247166787        1.04043902124160       -0.03451255324429
C           -2.36049219689216        2.10007230128556       -0.05045007437266
C           -1.88203849376220       -0.21213515446444       -0.04752611692900
O           -3.07544992620966       -0.43838451703003       -0.07258797448389
N           -0.96200010139601       -1.27091831941658       -0.02438069855774
C           -1.47966534369393       -2.62438366178804       -0.02616777569394
H            3.89497706649669        1.02096430435510        1.00113819888382
H            4.57710660277110        0.99401108476720       -0.41411020493327
H            3.00580492307309        2.10734495739008       -0.07008813595596
H            3.53994880462528       -1.64451868503287        0.02893248660798
H           -1.84175390156247        3.05418150689288       -0.02214614923499
H           -2.97137197677468        2.02616032767140       -0.95249511986626
H           -3.02453053586214        2.00306756889117        0.81066018829966
H           -1.20418462326201       -3.15662581537327        0.88709130984324
H           -1.13358980202661       -3.18204225817118       -0.89932099562712
H           -2.56834479413063       -2.54919666957119       -0.06993629385694
H            1.29944514033087       -2.87372228436218        0.00110386678861
25
 energy: 14.570460030436 xtb: 6.6.1 (8d0f1dd)
C            3.46466044479568        1.12108176960376        0.03282880274008
N            2.35878701551919        0.16474022116299       -0.13676905680740
C            2.57968378850288       -1.20039852586917       -0.05409574570842
N            1.38594141399342       -1.87151382380704       -0.00904208049174
C            0.37951246584774       -0.98251310033625       -0.02576815734844
C            0.92005810832070        0.31238804143232       -0.05426175108062
C            0.04078266580523        1.42699980544656       -0.01330064623635
O            0.32956916028557        2.62083887353466        0.03270765010185
N           -1.35961051137440        1.04084097024577       -0.03424020804498
C           -2.36083163305305        2.10056339587285       -0.05061973652002
C           -1.88191217010696       -0.21188546198227       -0.04714167367338
O           -3.07535323965268       -0.43874562616503       -0.07270018200085
N           -0.96187824849540       -1.27086304962066       -0.02249571493131
C           -1.47986278154459       -2.62423611004340       -0.02571479093879
H            3.89416022073519        1.01758829617925        1.00083388850277
H            4.57843172872219        0.99690198197244       -0.41364979627781
H            3.00453364011438        2.10796623771940       -0.06737438912237
H            3.54022922651384       -1.64379306995368        0.03477397763338
H           -1.84143035070839        3.05442911719467       -0.02259485636489
H           -2.97169255441943        2.02661076529732       -0.95266251034842
H           -3.02497308140068        2.00398820266271        0.81045776080950
H           -1.20384587194891       -3.15763573325418        0.88675289243977
H           -1.13443552488044       -3.18108401329214       -0.89977766981707
H           -2.56859440504921       -2.54904966021180       -0.06879902845804
H            1.30028516141436       -2.87419090161703       -0.00031308190916
25
 energy: 14.561745034556 xtb: 6.6.1 (8d0f1dd)
C            3.46502354560821        1.12094648830053        0.03301182692125
N            2.35815481228510        0.16506763346333       -0.13767901547409
C            2.57987979824906       -1.20036691369016       -0.05982412507156
N            1.38607115381647       -1.87146617406283       -0.00861521806635
C            0.37961262978756       -0.98250900463827       -0.02460193856069
C            0.92023693094652        0.31222652215236       -0.05305558701090
C            0.03993891976255        1.42687381303885       -0.01338879064265
O            0.32978565204774        2.62057009265091        0.03191334106747
N           -1.35975755516794        1.04113364212907       -0.03386945366635
C           -2.36120272987823        2.10060123197769       -0.05069995035555
C           -1.88190801890591       -0.21181105743836       -0.04709505150872
O           -3.07524845020901       -0.43879149780107       -0.07333732649554
N           -0.96173575303844       -1.27059288859858       -0.02145593667610
C           -1.47983478682148       -2.62403841136827       -0.02543783898973
H            3.89489044668465        1.01511247271397        1.00045467935638
H            4.57846026553709        0.99721432527468       -0.41477370125774
H            3.00526907469989        2.10805635450011       -0.06604797253381
H            3.53997629163284       -1.64272178134198        0.04027409558628
H           -1.84213275829560        3.05463140348144       -0.02275502297750
H           -2.97195252915798        2.02634396344017       -0.95281017853424
H           -3.02548386947073        2.00391527761912        0.81026398596207
H           -1.20359019747645       -3.15784417305104        0.88668399215070
H           -1.13464153559145       -3.18043159142693       -0.89990271188148
H           -2.56859055391479       -2.54882858867349       -0.06830328268109
H            1.30099388480658       -2.87426253647923       -0.00191492251275
25
 energy: 14.427496025222 xtb: 6.6.1 (8d0f1dd)
C            3.46539729765945        1.12033116585956        0.03335206057612
N            2.35662424177389        0.16614179699584       -0.14122659752628
C            2.58017150917264       -1.20030442487150       -0.08150960366861
N            1.38617401842531       -1.87114311204078       -0.00830197444785
C            0.37977050174575       -0.98198422346222       -0.02138704339175
C            0.92064259532031        0.31226899071558       -0.05042122281736
C            0.03808255281462        1.42687520849610       -0.01335865230039
O            0.32962182010229        2.62033609657940        0.03056364780239
N           -1.35938766941010        1.04157598716712       -0.03279411714680
C           -2.36153401034616        2.10043003495691       -0.05104522978889
C           -1.88176002251631       -0.21182401358596       -0.04685353216529
O           -3.07491682983429       -0.43851298817468       -0.07520014905269
N           -0.96131150766946       -1.26994949528958       -0.01829158506967
C           -1.47947352092015       -2.62367148900297       -0.02417692991685
H            3.89649060298135        1.00666117382032        0.99922906135335
H            4.57731819579968        0.99865902323124       -0.41813569343267
H            3.00700292650141        2.10821454962165       -0.06090228033666
H            3.53841031125135       -1.63902120796153        0.06040277962590
H           -1.84356366417078        3.05495898215722       -0.02322732638396
H           -2.97184011790525        2.02529765952882       -0.95342129962359
H           -3.02623135764101        2.00342883483241        0.80957065898175
H           -1.20312134043900       -3.15814816205233        0.88735645564670
H           -1.13424429161364       -3.17905228871788       -0.89926306000147
H           -2.56822860609581       -2.54842187573009       -0.06720212605987
H            1.30212103295012       -2.87411762090064       -0.00672234470826
25
 energy: 14.368289979006 xtb: 6.6.1 (8d0f1dd)
C            3.46527249548806        1.12003005990597        0.03322180672182
N            2.35633074134134        0.16634686712686       -0.14078856072994
C            2.58032489323811       -1.20065081625803       -0.09022981236245
N            1.38605689945610       -1.87113304833815       -0.00891459798456
C            0.37986073396088       -0.98174146449455       -0.02046396905399
C            0.92078654388856        0.31228811822213       -0.04974667408514
C            0.03771924987083        1.42691964068205       -0.01290710422178
O            0.32941350601989        2.62027629634258        0.03069515181975
N           -1.35899189625599        1.04159162748518       -0.03237059946113
C           -2.36140851224930        2.10031586362156       -0.05109262856784
C           -1.88160417032521       -0.21193201130173       -0.04673918548417
O           -3.07475760813786       -0.43829970331497       -0.07570403429429
N           -0.96109467659376       -1.26983699208691       -0.01760086559975
C           -1.47927164445935       -2.62362175504593       -0.02382650287533
H            3.89716415150707        1.00544906422840        0.99865376833977
H            4.57675707612144        0.99863465901942       -0.41918213746009
H            3.00729492963129        2.10807043352409       -0.06010340259772
H            3.53692708572148       -1.63738225825598        0.06839814115826
H           -1.84377646579379        3.05499494581970       -0.02330161230142
H           -2.97150180851273        2.02487953802846       -0.95358163469756
H           -3.02625522350923        2.00322540855575        0.80938642628480
H           -1.20316264963288       -3.15808398849682        0.88773440315277
H           -1.13379372256836       -3.17890630735029       -0.89884277425625
H           -2.56800842638782       -2.54834476435101       -0.06719286127318
H            1.30193316611747       -2.87406081109573       -0.00846684402329
25
 energy: 14.222770520589 xtb: 6.6.1 (8d0f1dd)
C            3.46476552021720        1.11950361872098        0.03269854086355
N            2.35629421395056        0.16639139748600       -0.14010603721804
C            2.58073710420337       -1.20161291943283       -0.10552225060565
N            1.38576892656363       -1.87114158574333       -0.01088074141329
C            0.38006655331272       -0.98127572446848       -0.01955151072167
C            0.92099621081036        0.31236837494005       -0.04975472380807
C            0.03779263418827        1.42716561568870       -0.01200540539116
O            0.32883282270314        2.62037130124754        0.03175612412145
N           -1.35821021892830        1.04145173372756       -0.03191163837870
C           -2.36097803064902        2.10010555865703       -0.05105350778262
C           -1.88125225406539       -0.21216899352235       -0.04643540163083
O           -3.07445392783684       -0.43796907278136       -0.07587797198377
N           -0.96063168097263       -1.26979654396940       -0.01697118314811
C           -1.47882967513091       -2.62362784727398       -0.02328080238740
H            3.89752978390899        1.00463609620209        0.99808044578698
H            4.57565764788225        0.99847834811172       -0.42024170942327
H            3.00738645167631        2.10784786848152       -0.05965842041645
H            3.53409904801207       -1.63478330955934        0.08307311301912
H           -1.84370807603339        3.05494094247153       -0.02332350775578
H           -2.97081112138331        2.02428164391386       -0.95364894048548
H           -3.02591173683092        2.00292933524649        0.80931518086152
H           -1.20341059142397       -3.15782552790005        0.88857502311078
H           -1.13275731786468       -3.17907369036441       -0.89788257795586
H           -2.56751894194751       -2.54828420302185       -0.06744411230466
H            1.30076132357422       -2.87388381468569       -0.01091408880530
25
 energy: 14.180830245960 xtb: 6.6.1 (8d0f1dd)
C            3.46436111167953        1.11944137151522        0.03208993373392
N            2.35700175978927        0.16578414765853       -0.13830366586240
C            2.58102148690498       -1.20232441352609       -0.10533124753373
N            1.38558498024298       -1.87130740833219       -0.01230498183851
C            0.38014701978545       -0.98127566301344       -0.02050261558555
C            0.92097635798075        0.31233629507730       -0.05103133893465
C            0.03883812729224        1.42733651498276       -0.01144712927069
O            0.32855824540360        2.62051613861993        0.03326984866412
N           -1.35797835420409        1.04117837954514       -0.03226516610437
C           -2.36058630852426        2.10006567542514       -0.05080908009702
C           -1.88109825414706       -0.21226558112422       -0.04633211379601
O           -3.07438241265288       -0.43799421459183       -0.07490652451361
N           -0.96045784430185       -1.27004318399009       -0.01818961662920
C           -1.47870354383376       -2.62376492785036       -0.02363650709480
H            3.89670188456274        1.00847475323089        0.99836389846533
H            4.57537163942885        0.99746526447419       -0.41924936122847
H            3.00673774776953        2.10759672202934       -0.06228803706174
H            3.53308174050464       -1.63488869171282        0.08387476158309
H           -1.84304029567000        3.05476980191940       -0.02302910493545
H           -2.97058058657872        2.02448962086468       -0.95328089753538
H           -3.02529610396012        2.00294809797224        0.80972230101559
H           -1.20371781242022       -3.15751761405938        0.88864693815693
H           -1.13237845629807       -3.17976925447392       -0.89774096950660
H           -2.56736928963788       -2.54835431331813       -0.06812394074847
H            1.29942182882055       -2.87386891515023       -0.01016148719505
25
 energy: 14.158258458394 xtb: 6.6.1 (8d0f1dd)
C            3.46427450100394        1.11955120827555        0.03178247821830
N            2.35728778372149        0.16555265814622       -0.14053361390519
C            2.58131150224004       -1.20256526659407       -0.10631448504876
N            1.38566398632157       -1.87132978039113       -0.01275144244046
C            0.38020445100744       -0.98140052950476       -0.02088690823692
C            0.92095045803921        0.31228591880281       -0.05204238551645
C            0.03946898781181        1.42738560877613       -0.01156396313597
O            0.32861256910614        2.62059936298308        0.03376962404517
N           -1.35820157754710        1.04111898124040       -0.03262417243042
C           -2.36055980381180        2.10015710989210       -0.05068356003186
C           -1.88110303217552       -0.21218360636147       -0.04614397494893
O           -3.07440036276619       -0.43823420885009       -0.07413020492415
N           -0.96040728298899       -1.27014654637787       -0.01839730113138
C           -1.47871862400674       -2.62379454918757       -0.02367862199388
H            3.89538047404871        1.00880770011070        0.99874542380567
H            4.57560091107964        0.99793952895214       -0.41821099577199
H            3.00631621147585        2.10771304920652       -0.06276204295263
H            3.53367732051775       -1.63544367655559        0.08623581528358
H           -1.84266798835733        3.05471036784712       -0.02289600348513
H           -2.97080927433207        2.02486039671760       -0.95300053725442
H           -3.02504984993131        2.00315183241539        0.81003528208770
H           -1.20371509905772       -3.15764416938285        0.88858293123441
H           -1.13253627280245       -3.17985006960597       -0.89782420280208
H           -2.56739205282662       -2.54834200936852       -0.06804027785289
H            1.29902673216649       -2.87387070901386       -0.00963296466400
