25
 energy: -42.159236559017 gnorm: 0.006983335311 xtb: 6.6.1 (8d0f1dd)
C            3.10287677641746        1.42744672684646       -0.08545834881454
N            2.26555701227918        0.31486279508532       -0.08225437416562
C            2.28542146698434       -2.50577099080623        0.10692830117361
N            1.13345978876992       -2.14796579277381       -0.25902499506739
C            0.38503351732727       -1.08385226729352       -0.06837424214554
C            0.99024121986465        0.23170578588339       -0.07274343522647
C            0.06725628077247        1.41408494752134       -0.05522891261564
O            0.48936864652621        2.54724517752145       -0.07437017686433
N           -1.27003851324837        1.11942072433909       -0.00381280278014
C           -2.22087984006878        2.22409977079067        0.03089292401228
C           -1.83988489496347       -0.14314569500312        0.02467085258625
O           -3.02569330492128       -0.30741294293643        0.08010786812059
N           -0.95181290176370       -1.22660107004632       -0.01218549741274
C           -1.51639932925344       -2.56095032132679        0.01568039346286
H            3.76718379720241        1.36623668637099        0.78217238524099
H            3.73900442894369        1.37050883158736       -0.97481605278318
H            2.56188897728134        2.38363285230218       -0.07266513815598
H            2.76534748669031       -2.11273633561607        0.99860350336055
H           -1.66646712924692        3.15841531712939        0.06780114431047
H           -2.85022160499632        2.19478546405176       -0.85862576408457
H           -2.86069322285599        2.12543462359025        0.90754237087014
H           -1.34669022684390       -3.02924563026511        0.98599154147906
H           -1.04576580508525       -3.16730528836068       -0.75845866816781
H           -2.58779979357717       -2.48342997611720       -0.16084690920621
H            2.79013868186582       -3.29122485087447       -0.43035434922631
