72
 energy: -99.694310612759 xtb: 6.6.1 (8d0f1dd)
N           -1.43594955000191        2.98540635226633        2.23579652341592
C           -1.43753286990846        2.23158668438513        1.22832151882624
C           -2.59187844480752        2.12433377719366        0.26614170877530
C           -3.18672761798257        0.72757662851684        0.35300772977394
C           -4.11875046067984        0.30555230415213       -0.59825825721943
C           -4.68393416708028       -0.95407633553279       -0.54508761707140
O           -5.59578266328421       -1.44600601203042       -1.43227843288760
C           -6.08431005143751       -0.60146917019848       -2.44218628739667
C           -4.31898574119282       -1.84145615248918        0.49188109860818
O           -4.92163052221906       -3.06436491571243        0.45636554361771
C           -4.66852585566785       -3.96859571241823        1.50032888485083
C           -3.40875521126620       -1.41763819942642        1.44111850241444
C           -2.85130905564109       -0.14535242331768        1.37133686301158
C           -2.00858415812633        2.37119998489740       -1.15226653044490
C           -1.22887966402066        1.19111145455088       -1.76751811738481
C            0.04570096925681        0.92142661541303       -1.07877087193966
N            0.42814163118103       -0.31110223773701       -0.59064309238042
C            1.74982716634141       -0.44909297587403       -0.08946809064318
C            2.76345303911258       -1.02626381105088       -1.08877478274653
C            4.12350960059058       -0.66598308047641       -0.58614382476834
C            4.46338519517017        0.68543196498724       -0.42718369488508
C            5.84311592191060        0.92469006651529       -0.26980527182454
C            6.75021761376114       -0.09480721117653        0.03157933825000
O            8.08213552796298        0.04987867647164        0.32143167665152
C            8.70871430076411        1.29907289415360        0.20717041827272
C            6.30314783310102       -1.43212187247958        0.15739588431902
O            7.20775280067856       -2.34161229767792        0.63482277217023
C            6.81568012069826       -3.67997897862954        0.84339494845879
C            5.00758055882489       -1.69363777647494       -0.23728595224439
C           -0.33713253602103       -1.50271349670606       -0.79153590622318
C           -3.72391351741454        3.15286032867788        0.54468398409445
C           -4.41450626992417        2.87944876918249        1.87926024449467
C           -3.23803339962031        4.60095032421047        0.50740118236206
H           -4.40504332373097        0.97968196240971       -1.38897409947939
H           -6.56982270492144        0.28833813704976       -2.02717973571000
H           -6.82163325764564       -1.19387937756889       -2.98219466448201
H           -5.29432703490466       -0.29405785790903       -3.13646489427717
H           -4.95931040924829       -3.55765305347883        2.47354792604956
H           -5.28197303852457       -4.84156724817598        1.28377408308508
H           -3.61549882697323       -4.26957087432432        1.53117108144155
H           -3.12051426291249       -2.06869781488605        2.25145561775980
H           -2.15492108661799        0.15719087212031        2.13800845053162
H           -2.82347977087674        2.63143503280240       -1.83052173844857
H           -1.33550947486521        3.22914132448964       -1.10152330701912
H           -1.85432849901810        0.30046109466309       -1.78032719955270
H           -1.02236450794533        1.47039787293875       -2.81290786323873
H           -0.58186252121486        1.61841621748427        0.91141984662605
H            0.77361470588381        1.70918627615057       -0.99858202106971
H            1.75001353390074       -1.06546752657766        0.81436391960608
H            2.10267407476871        0.54244458690177        0.18721499842023
H            2.60057983878019       -0.57560847765451       -2.07325144239798
H            2.64563432224989       -2.10584492230587       -1.19482409248229
H            3.60270377250163        1.49006036351381       -0.29442388661493
H            6.24624440695845        1.92050240131668       -0.39053715434892
H            8.23937469517495        2.05447213352459        0.84608491414139
H            8.71253022116883        1.64455395725675       -0.83152511154172
H            9.73849778312700        1.14760922781588        0.53512455730240
H            7.68726622574902       -4.18814052478692        1.26119734865611
H            5.98628961510961       -3.76253856669684        1.55486923680059
H            6.53722952369830       -4.17744555126456       -0.09170072462732
H            4.64214129888129       -2.71025360840378       -0.21370174549556
H           -0.44531729689596       -1.77115109301632       -1.84950806850850
H           -1.33018745073434       -1.37804851992290       -0.35525575417691
H            0.16882562416385       -2.31831910680758       -0.27845840642819
H           -4.46744999886240        3.02412720733295       -0.25205537302424
H           -3.69768425319204        2.97260500381787        2.68827290680977
H           -4.84300575263654        1.88004474899230        1.89809163695515
H           -5.21412288034692        3.60056918591975        2.03318392843246
H           -2.50319186074858        4.76546296307655        1.28913097881707
H           -2.79769468626121        4.85247158068047       -0.45374451655220
H           -4.08023150800085        5.26840657739288        0.67682979163475
H           -0.57946736835582        2.97815316201880        2.78704454574361
