25
 energy: 0.000000000000 xtb: 6.6.1 (8d0f1dd)
C            3.23720163006194        1.16630919979326        0.08434469647475
N            2.29877817382611        0.07527477071623        0.03981603040599
C            2.58028210190900       -1.21425402444508        0.03006176031096
N            1.43813958087363       -1.93419271955128        0.00098261760884
C            0.39035688448383       -1.05887472636071       -0.00790371836672
C            0.93510056364412        0.21347819449412        0.01709077491437
C            0.09450143893243        1.40504303904423       -0.00410947031874
O            0.49712751527797        2.54126714362870       -0.00342325688240
N           -1.25076640035757        1.06271879480407       -0.03085478223738
C           -2.21907211982101        2.15522099834493       -0.05001256985998
C           -1.81739487048744       -0.20012725993278       -0.04692818574614
O           -2.99983886758376       -0.37846417018721       -0.07008878229737
N           -0.92618586207120       -1.30210215599479       -0.03682761578324
C           -1.46982264913417       -2.64643102187190       -0.06029820460571
H            3.71247264356769        1.21471455160235        1.06488849150277
H            4.00791497605742        1.03430808813993       -0.67357694370751
H            2.69910007168542        2.09770118228144       -0.09130154882931
H            3.56654120610678       -1.63682992603973        0.04233140067262
H           -1.67107961066214        3.09322851271934       -0.02552706933167
H           -2.82428953597071        2.09428624779827       -0.95318082946668
H           -2.87644029173232        2.07745725625962        0.81450067533302
H           -1.17061996399332       -3.19584890659852        0.83242232437030
H           -1.14560257411436       -3.17511610292205       -0.95688275822323
H           -2.55549792440841       -2.55659984320617       -0.07459039797972
H            1.38130855184625       -2.94313852034425       -0.01389874181052
25
 energy: -1.524558617080 xtb: 6.6.1 (8d0f1dd)
C            3.23618365384479        1.18468967930849        0.08497089322466
N            2.33209260021054        0.07683257594847        0.03754633101976
C            2.65281869883008       -1.26721788661659        0.03196407906170
N            1.44594254318088       -1.93798757357204        0.00167931763568
C            0.40726782861036       -1.05108739776170       -0.00856895166070
C            0.94370743758201        0.22277898009848        0.01482407705595
C            0.09588086930604        1.40009308625073       -0.00493921383370
O            0.48181425676592        2.56945659456076       -0.00331314109491
N           -1.27024095538452        1.06016633379680       -0.03119086588650
C           -2.24198983064769        2.15279763174751       -0.04922462767140
C           -1.82815350901483       -0.19240169011403       -0.04815363475205
O           -3.02483690105226       -0.37768514307548       -0.07161944321781
N           -0.93113576934486       -1.28985139966893       -0.03771998835908
C           -1.47769600403692       -2.62932431057090       -0.06099288369273
H            3.70708694556377        1.24071557581548        1.06847616367624
H            4.00208439642373        1.05981434962643       -0.67866282882409
H            2.67795168046792        2.10593083057231       -0.09182765780966
H            3.68292512493105       -1.79059714879692        0.04836480663961
H           -1.69557499811126        3.09311666906649       -0.02448342476554
H           -2.85178117042617        2.09787265721458       -0.95145950359780
H           -2.90318240218551        2.07985892039368        0.81455665003641
H           -1.17577561952940       -3.18041670847814        0.83122621769701
H           -1.15084346458368       -3.15993159397759       -0.95695805575793
H           -2.56413551157132       -2.54104959499026       -0.07536685591082
H            1.36180476810751       -2.93754483460560       -0.01209356306498
25
 energy: 10.712863693676 xtb: 6.6.1 (8d0f1dd)
C            3.23127790548787        1.20052709083933        0.08463365325162
N            2.36398520965475        0.06579392945062        0.03341870870486
C            2.72405813631998       -1.32046417151796        0.03449063689745
N            1.45483998262390       -1.93553649155111        0.00340443949792
C            0.42511001707483       -1.04430416209044       -0.00899587539972
C            0.95595198332997        0.22943513946402        0.01234692740742
C            0.10115075128440        1.39192469620213       -0.00543591542325
O            0.45351549129356        2.57982572455181       -0.00305617434043
N           -1.28680739430545        1.06229498976933       -0.03146990370253
C           -2.26453118712886        2.15347052522624       -0.04805622074430
C           -1.82934900992382       -0.18317026913336       -0.04935878339825
O           -3.02971723255922       -0.37785543045806       -0.07363508406165
N           -0.93062514273873       -1.27427959206223       -0.03863678017263
C           -1.48439543210035       -2.60865014467909       -0.06199309561954
H            3.70013346433207        1.27840091125779        1.06901320793910
H            3.99843662354538        1.10121434423284       -0.68180016006578
H            2.64907790884581        2.10999718172869       -0.09250154233145
H            3.79165678014313       -1.96547268985777        0.05525737939399
H           -1.72744245869083        3.09964616141829       -0.02293688807739
H           -2.88059340062495        2.09935025951588       -0.94799567493663
H           -2.93070426278633        2.07953558305952        0.81377684901288
H           -1.18483100482755       -3.16238340126923        0.83011603707632
H           -1.15982922136826       -3.14207124861064       -0.95788683811636
H           -2.57148009544953       -2.51806234314441       -0.07647318202292
H            1.34332625650444       -2.93013799017016       -0.00919182462144
25
 energy: 22.115783626331 xtb: 6.6.1 (8d0f1dd)
C            3.22402514612834        1.20941052432273        0.08387035978957
N            2.37636027441263        0.05725770013010        0.03081913049563
C            2.75700034800510       -1.34837766260555        0.03584717840714
N            1.46208172039605       -1.93664038434199        0.00558002338839
C            0.43405559881484       -1.04516309991345       -0.00829046267606
C            0.96178484975713        0.23139004959976        0.01194547169750
C            0.10699034115352        1.39204376856734       -0.00511748368433
O            0.43892047383708        2.58289938983695       -0.00280948741007
N           -1.29218702702570        1.06852507373657       -0.03164504068984
C           -2.27518599674016        2.15600922398956       -0.04743643936812
C           -1.82702666981158       -0.17830877279687       -0.05011627027343
O           -3.02701736185028       -0.37844072339393       -0.07545772014139
N           -0.92728316109047       -1.26703422629763       -0.03877434661718
C           -1.48877462659973       -2.59787515026852       -0.06261978362088
H            3.69147567179836        1.30219961950012        1.06813781207951
H            3.99437551255224        1.13099347572291       -0.68241466525085
H            2.62653187600279        2.10993238592787       -0.09367945781971
H            3.86058701562399       -2.06662047271921        0.05710864463632
H           -1.74728754992677        3.10673785274852       -0.02198083118018
H           -2.89379493147554        2.09821504305217       -0.94621729491909
H           -2.94311270583794        2.07712783387002        0.81351149146552
H           -1.19352128837986       -3.15232619662044        0.83006883800488
H           -1.16805131460081       -3.13184603009428       -0.95918408526406
H           -2.57587568333963       -2.50062712158134       -0.07735867925736
H            1.33714415613261       -2.93045349819937       -0.00675300564466
25
 energy: 28.771596274332 xtb: 6.6.1 (8d0f1dd)
C            3.21991498032508        1.21280380235636        0.08371600459467
N            2.37552493638666        0.05782060112644        0.02958988338321
C            2.76316248044782       -1.35363641902322        0.03614218339197
N            1.46455264670246       -1.93567307016069        0.00628689648943
C            0.43439373937330       -1.04609685029520       -0.00784489658343
C            0.96039115777376        0.23323489738023        0.01213210241668
C            0.10847182479846        1.39583297290339       -0.00504629239164
O            0.43204087473479        2.58497798523801       -0.00276456741465
N           -1.29423152690310        1.07234827084615       -0.03177176606617
C           -2.27833771242110        2.15791945357085       -0.04737629928514
C           -1.82766072975490       -0.17688704019947       -0.05025797676790
O           -3.02686751508203       -0.37810294680190       -0.07596580532599
N           -0.92677983372517       -1.26508999697683       -0.03860269695737
C           -1.49045308834638       -2.59595268194263       -0.06266672987944
H            3.68667899601861        1.30676364361230        1.06775753212181
H            3.99074088009808        1.13784912562273       -0.68174732879931
H            2.62136032710241        2.11138417186741       -0.09437111791801
H            3.90304578497698       -2.10877803263544        0.05737894762197
H           -1.75265902061863        3.10925254242171       -0.02189050053427
H           -2.89688919009196        2.09855670818630       -0.94620488869561
H           -2.94600691425298        2.07727211171216        0.81376266014397
H           -1.19621075596219       -3.15011742730977        0.83002130622999
H           -1.17069639861143       -3.12947234336476       -0.95935033673061
H           -2.57762996774050       -2.49767443857431       -0.07744686338450
H            1.33635869270816       -2.92950643738782       -0.00644555351236
25
 energy: 39.800581757225 xtb: 6.6.1 (8d0f1dd)
C            3.21614332752301        1.21631770610616        0.08370494558715
N            2.36768317040977        0.06457716898410        0.02789031611360
C            2.75870077786568       -1.35021407103038        0.03609123965266
N            1.46480423081399       -1.93170702424651        0.00665462202721
C            0.42985380473875       -1.04614073135038       -0.00752782410567
C            0.95403640134991        0.23680801332352        0.01259543927329
C            0.10809083479412        1.40313031384463       -0.00506909458350
O            0.42326293379890        2.58898546443983       -0.00257276641475
N           -1.29752614764793        1.07599679709092       -0.03199099056665
C           -2.28165931526813        2.15970302214739       -0.04747806107338
C           -1.83151446544516       -0.17609704401943       -0.05032898592301
O           -3.02937765963077       -0.37705810613733       -0.07613157157469
N           -0.92864254859025       -1.26348606631495       -0.03839058759567
C           -1.49252900601764       -2.59595809088777       -0.06259420138853
H            3.68269508615504        1.30667809140731        1.06763143874192
H            3.98692942942715        1.13828306339611       -0.68066274917111
H            2.62190352517181        2.11579960685128       -0.09512088027064
H            3.97838397345771       -2.16438388671539        0.05826555533119
H           -1.75660625459815        3.11080971009744       -0.02199423739993
H           -2.89969660348378        2.09998253742611       -0.94652787086933
H           -2.94871753368775        2.07869220789942        0.81400876838933
H           -1.19756266226693       -3.14886883776803        0.83000714422394
H           -1.17219781416011       -3.12806715835455       -0.95931533706825
H           -2.57979731997012       -2.49878799556140       -0.07732802544776
H            1.33555450319709       -2.92596608845609       -0.00678238974011
25
 energy: 55.211277030803 xtb: 6.6.1 (8d0f1dd)
C            3.21331230968714        1.22029262744325        0.08383599713847
N            2.35299564494260        0.07848532344746        0.02581246661301
C            2.73797306911863       -1.33381722995933        0.03416944852826
N            1.45996290204160       -1.92417425190402        0.00631323712716
C            0.41948348200525       -1.04322854200268       -0.00739121019528
C            0.94262048536351        0.24232486849818        0.01346635290629
C            0.10418331763699        1.41175629061886       -0.00479092263557
O            0.41497275163689        2.59514305166102       -0.00208374707760
N           -1.30297446302672        1.07764654993043       -0.03219108023066
C           -2.28534481494019        2.16099288671718       -0.04783356631262
C           -1.83932322644708       -0.17562472123919       -0.05026216342943
O           -3.03582565708249       -0.37534048891775       -0.07599377430969
N           -0.93455484428503       -1.26203196235382       -0.03809501716943
C           -1.49498478185165       -2.59754592058278       -0.06241901236039
H            3.68055990118849        1.30262792003739        1.06796487536152
H            3.98344985448740        1.13206829562596       -0.68010465537976
H            2.62727171216341        2.12438947869271       -0.09519545047188
H            4.09910126027597       -2.24049897340254        0.06101166665209
H           -1.75857448685333        3.11127095283460       -0.02232771629252
H           -2.90256687658067        2.10259082002065       -0.94726803725454
H           -2.95177863492742        2.08149013200333        0.81400145471838
H           -1.19725485528922       -3.14875539682032        0.83004606704275
H           -1.17200886652947       -3.12782993637221       -0.95902956417379
H           -2.58224019485045       -2.50387090454630       -0.07714745154518
H            1.33375968005203       -2.91933226725804       -0.00745430110233
25
 energy: 54.935822776195 xtb: 6.6.1 (8d0f1dd)
C            3.20147842085864        1.23066355722606        0.08397963611887
N            2.31636762484074        0.10795036548604        0.01977973243895
C            2.68939567359215       -1.29451583583328        0.01345548273459
N            1.45091886985932       -1.90092605651967        0.00488908274066
C            0.39624290415091       -1.03456589861408       -0.00552162169118
C            0.91630108471118        0.25743715399400        0.01719291691082
C            0.09621316499523        1.43275228122431       -0.00151430682561
O            0.39471947603506        2.60694495693149       -0.00096913813173
N           -1.31529114867653        1.08493480905521       -0.03262021580632
C           -2.29472433806568        2.16505449538142       -0.04872444755882
C           -1.85449675034518       -0.17353647120146       -0.05035214674037
O           -3.04702753397522       -0.37182477335250       -0.07671268419085
N           -0.94756886664592       -1.25667705982592       -0.03644637687893
C           -1.50008555107462       -2.59875907430529       -0.06195127119724
H            3.67139282592040        1.29823808647382        1.06685426356108
H            3.97129015563103        1.12659274876067       -0.67809250984330
H            2.63035010430029        2.14137516296357       -0.09513196827424
H            4.39457962356914       -2.45542954535775        0.07860041586852
H           -1.76622184114090        3.11398381929909       -0.02295385288082
H           -2.90962964576627        2.10600672430245       -0.94903355688925
H           -2.95902081076181        2.08495387042013        0.81411213755695
H           -1.19777891300996       -3.14652980773728        0.83024749398694
H           -1.17233537792550       -3.12509956110184       -0.95840904463914
H           -2.58703415723019       -2.51014962023840       -0.07694997276820
H            1.33417967408990       -2.89984572525881       -0.00669415145409
25
 energy: 54.044914363737 xtb: 6.6.1 (8d0f1dd)
C            3.18616419345761        1.23758261574768        0.08239703197415
N            2.27205544424679        0.13299939043159        0.02122864627402
C            2.63089328877649       -1.24026412264332        0.01396193564887
N            1.43866582871891       -1.86936094712111        0.00383805938242
C            0.36731242892739       -1.01967346594528       -0.00502338119856
C            0.88888188723561        0.27032532917203        0.01882185486877
C            0.08089993704204        1.45359262610430       -0.00322311927390
O            0.37455874754355        2.61028451100662       -0.00064826649810
N           -1.32538683241948        1.09427836584560       -0.03318106808441
C           -2.30366132188368        2.17011530596519       -0.04863630446340
C           -1.86926103800541       -0.17244943622170       -0.05044755525476
O           -3.05774186861567       -0.36701809086923       -0.07660419032031
N           -0.96248722582550       -1.24933595824532       -0.03672819817234
C           -1.50457882876175       -2.59924252642989       -0.06209991661010
H            3.65981515715458        1.29143651601765        1.06315891767485
H            3.95770376915238        1.11562348643149       -0.67499229727357
H            2.63486932279687        2.15752758142458       -0.09779039874978
H            4.71957647195641       -2.68523443011086        0.08483643742785
H           -1.77455357019226        3.11829367985091       -0.02290962587345
H           -2.91614225420782        2.10868556837291       -0.94949480229031
H           -2.96535221163161        2.08756691273435        0.81504760444574
H           -1.19692401307955       -3.14355734352820        0.82958020567286
H           -1.17171312944535       -3.12205345976591       -0.95793340163614
H           -2.59123084217286       -2.51700445578540       -0.07699997487376
H            1.33985132716854       -2.87408905026665       -0.00912429664933
25
 energy: 52.701402605566 xtb: 6.6.1 (8d0f1dd)
C            3.17522367045684        1.23494393499585        0.08088268225926
N            2.24565427310867        0.13786981721448        0.03064789620097
C            2.59302114650879       -1.18538432202698        0.02435147901436
N            1.42100874976399       -1.84349643835510        0.00346882524828
C            0.34536101278614       -0.99958638164865       -0.00575513700351
C            0.87358713768472        0.27715406584575        0.01784358905871
C            0.05651919555426        1.45634151825434       -0.00556402614263
O            0.36786124958002        2.61479164046103       -0.00147051937289
N           -1.33232177365981        1.09528173823782       -0.03305385175115
C           -2.30816266274455        2.17336447697862       -0.04840902538637
C           -1.87913491555585       -0.17243999337866       -0.05057596015015
O           -3.07014545967021       -0.36174782898986       -0.07613031679151
N           -0.98116187004911       -1.24471072612996       -0.03850011005100
C           -1.50770365056317       -2.59893373305952       -0.06264464332495
H            3.65218442935945        1.28301261768301        1.06029348618785
H            3.94689339811654        1.09884397083320       -0.67446395170336
H            2.63964184453563        2.16459816535764       -0.09987187031512
H            4.94607485881883       -2.82119340746071        0.08007987353443
H           -1.77444380991388        3.11997435363439       -0.02267946015288
H           -2.91860287746159        2.11141677191020       -0.94992016729494
H           -2.96793176593824        2.09029414985882        0.81587797174986
H           -1.19413730110175       -3.14267662818312        0.82857668943266
H           -1.16917814408254       -3.12168467530476       -0.95751708473132
H           -2.59422305926403       -2.52515865569852       -0.07738305325361
H            1.34633099166703       -2.85184582885728       -0.01104941911372
25
 energy: 52.391961317878 xtb: 6.6.1 (8d0f1dd)
C            3.16882954685049        1.23548577737897        0.08111703906382
N            2.23553926405308        0.13915478570751        0.03566064286928
C            2.57891160080574       -1.15368506976683        0.02881524522600
N            1.40479184232696       -1.83641924516865        0.00295402276850
C            0.33511643479434       -0.98763496429334       -0.00836321883792
C            0.86304007199540        0.28484340413430        0.01526356974859
C            0.03350077962570        1.45422644253798       -0.00436985727807
O            0.36920373603081        2.61603281299344       -0.00177684060496
N           -1.33797949359457        1.09690404378819       -0.03248270728451
C           -2.31313581911545        2.17733733231835       -0.04881254231152
C           -1.88313941185126       -0.17098077249072       -0.05081699032565
O           -3.07769299494474       -0.35555864284116       -0.07571011593969
N           -0.99410724664592       -1.24345596277940       -0.04020188158306
C           -1.50994032770478       -2.59810777111880       -0.06270449638963
H            3.64850020356742        1.28016390027156        1.06001232585218
H            3.93903723417092        1.09184715924138       -0.67505397924888
H            2.63952065098209        2.16980636505180       -0.09871584538177
H            5.08893651024167       -2.90263714205100        0.07486689888421
H           -1.77460319280363        3.12197287264020       -0.02293058555355
H           -2.92166398284100        2.11489819532924       -0.95110336251375
H           -2.97177706709575        2.09400345826874        0.81571700125116
H           -1.19230822988092       -3.14182938575784        0.82833976032738
H           -1.16791627680461       -3.12180360772654       -0.95683427062471
H           -2.59663051306343       -2.53077428905259       -0.07713129421288
H            1.34818134883763       -2.84476109444276       -0.00870462175329
25
 energy: 52.294486029531 xtb: 6.6.1 (8d0f1dd)
C            3.16833232418067        1.23671930425097        0.08114511174751
N            2.23559209603872        0.14034204330723        0.03680697294321
C            2.57980935654308       -1.15233635006147        0.03093313884269
N            1.39926606370580       -1.83964589860159        0.00247628589557
C            0.33631050869239       -0.98598397059684       -0.00901961238820
C            0.86007763102101        0.28869059581080        0.01408966882423
C            0.02544624902306        1.45326928050107       -0.00543224168354
O            0.37177225820592        2.61563450681862       -0.00264249707362
N           -1.33942007652006        1.09802329884292       -0.03272390364444
C           -2.31504702707721        2.17847358884880       -0.04840188948535
C           -1.88227405415594       -0.17039218233657       -0.05059038838963
O           -3.07787860696698       -0.35440940274625       -0.07512902372744
N           -0.99498042222500       -1.24368313052914       -0.04037465415354
C           -1.50952109970553       -2.59706648424579       -0.06296903143113
H            3.64816395515202        1.28117172327269        1.06008656017358
H            3.93845776765465        1.09125970271685       -0.67507983100106
H            2.63891612311697        2.17073145211215       -0.09935459670333
H            5.10746055905896       -2.91383047905760        0.07561951402779
H           -1.77447194322390        3.12204889717529       -0.02285558757570
H           -2.92322469699635        2.11525463377772       -0.95061168806633
H           -2.97259310729353        2.09448754564895        0.81665093305795
H           -1.19208244358163       -3.14136503555414        0.82806882113837
H           -1.16737763766288       -3.12128937883036       -0.95702678476510
H           -2.59634314494998       -2.53062382661485       -0.07754749937548
H            1.34782403590190       -2.84645183173747       -0.00908388103975
25
 energy: 52.245402276651 xtb: 6.6.1 (8d0f1dd)
C            3.16871174316648        1.23679862155714        0.08119196652241
N            2.23595824940626        0.14078989175484        0.03696474717294
C            2.58001895046598       -1.15261363290031        0.03087467875731
N            1.39585953897530       -1.84193398416208        0.00247852048622
C            0.33817722395054       -0.98571647552334       -0.00928584663773
C            0.85904175270977        0.29024658511789        0.01381453067272
C            0.02078757593809        1.45239297102575       -0.00479661069130
O            0.37518950825439        2.61410600360527       -0.00186596877139
N           -1.33902502176380        1.09868709639701       -0.03256639642031
C           -2.31545273804366        2.17877442205328       -0.04866921688832
C           -1.88098560801807       -0.17048986472049       -0.05061830834993
O           -3.07706528522586       -0.35389383742980       -0.07541050584373
N           -0.99443545693770       -1.24411441920362       -0.04019018369110
C           -1.50924019608216       -2.59649569922642       -0.06278261105128
H            3.64888561642890        1.28099675896494        1.05999013742244
H            3.93869609913852        1.09207084503088       -0.67542128759384
H            2.63823635540458        2.17012059306063       -0.09860399654160
H            5.10588483340410       -2.91123005598168        0.07426210944154
H           -1.77431767138288        3.12199893154351       -0.02286297450860
H           -2.92289333682692        2.11504549776526       -0.95113057725805
H           -2.97308222419958        2.09422828629939        0.81602453628954
H           -1.19231397194089       -3.14130554959767        0.82825488374107
H           -1.16760057701163       -3.12134689853604       -0.95677167639028
H           -2.59620371139072       -2.53018442080652       -0.07732933689265
H            1.34938301951717       -2.84790306391580       -0.00851671682877
25
 energy: 52.222806568593 xtb: 6.6.1 (8d0f1dd)
C            3.16906877364476        1.23648383538976        0.08120131473287
N            2.23620197159852        0.14064273095270        0.03692422054557
C            2.58002564160457       -1.15325206077042        0.03131771698127
N            1.39513515609214       -1.84235015377873        0.00247743087300
C            0.33882836621688       -0.98591469824659       -0.00938185238057
C            0.85922166519911        0.29016415270546        0.01353540938442
C            0.01971106883679        1.45227214912616       -0.00553776520568
O            0.37590940227512        2.61379651145389       -0.00244805421284
N           -1.33862220302579        1.09878857593190       -0.03276206813153
C           -2.31538508628671        2.17877503131186       -0.04840978354413
C           -1.88087842552256       -0.17084012802344       -0.05058811966469
O           -3.07700110765306       -0.35366765392777       -0.07515248451152
N           -0.99429098728277       -1.24413331504854       -0.04019516538738
C           -1.50919750049977       -2.59647080772332       -0.06295620285469
H            3.64891486699682        1.28103576065106        1.06013236685257
H            3.93918761894506        1.09155269678850       -0.67521454038150
H            2.63859969761453        2.16980769267363       -0.09903424487280
H            5.10205312829339       -2.90771791329419        0.07502215209933
H           -1.77421132583116        3.12198899132926       -0.02284190685038
H           -2.92327205231906        2.11514614842623       -0.95056201186123
H           -2.97263543300954        2.09432499167584        0.81656090062324
H           -1.19223665203104       -3.14141069000801        0.82802368716203
H           -1.16750899297656       -3.12129237595155       -0.95697644417701
H           -2.59621554908575       -2.53037297898367       -0.07753103720082
H            1.35081262614233       -2.84832789048798       -0.00856962187025
25
 energy: 52.211823077263 xtb: 6.6.1 (8d0f1dd)
C            3.16909275496675        1.23628019721792        0.08121523717965
N            2.23630919896459        0.14032837598059        0.03666203958850
C            2.57988918779604       -1.15392009159144        0.03072584790265
N            1.39487475766364       -1.84232505972394        0.00248555198886
C            0.33892642337696       -0.98609970742338       -0.00923978030731
C            0.85961577615507        0.28972535187516        0.01396154327615
C            0.01959582011574        1.45230776504244       -0.00464752205124
O            0.37627187377282        2.61366849532073       -0.00165957375332
N           -1.33812770240622        1.09882833778802       -0.03246606947965
C           -2.31515594192388        2.17867448698476       -0.04876418063772
C           -1.88102664039982       -0.17119920497951       -0.05055134927992
O           -3.07709746111695       -0.35326506899335       -0.07545432844473
N           -0.99447957299391       -1.24391459975950       -0.03995921028715
C           -1.50934846736764       -2.59647616014393       -0.06273196993669
H            3.64911615561332        1.28069325859637        1.06005851081306
H            3.93894600413894        1.09192343565001       -0.67551867963766
H            2.63835994535328        2.16968085072794       -0.09846442760905
H            5.10051030568512       -2.90567022192708        0.07412987416129
H           -1.77426117992457        3.12206627290212       -0.02293270966762
H           -2.92256586047902        2.11496989357103       -0.95125823582845
H           -2.97294687460547        2.09423132522982        0.81581769371522
H           -1.19232408880835       -3.14132119791391        0.82828159459470
H           -1.16757125916290       -3.12129692497165       -0.95671416018758
H           -2.59632323706585       -2.53037720036980       -0.07730204226394
H            1.35193475058853       -2.84848400691739       -0.00863975770073
