25
 energy: 0.000000000000 xtb: 6.6.1 (8d0f1dd)
C            3.23720163006194        1.16630919979326        0.08434469647475
N            2.29877817382611        0.07527477071623        0.03981603040599
C            2.58028210190900       -1.21425402444508        0.03006176031096
N            1.43813958087363       -1.93419271955128        0.00098261760884
C            0.39035688448383       -1.05887472636071       -0.00790371836672
C            0.93510056364412        0.21347819449412        0.01709077491437
C            0.09450143893243        1.40504303904423       -0.00410947031874
O            0.49712751527797        2.54126714362870       -0.00342325688240
N           -1.25076640035757        1.06271879480407       -0.03085478223738
C           -2.21907211982101        2.15522099834493       -0.05001256985998
C           -1.81739487048744       -0.20012725993278       -0.04692818574614
O           -2.99983886758376       -0.37846417018721       -0.07008878229737
N           -0.92618586207120       -1.30210215599479       -0.03682761578324
C           -1.46982264913417       -2.64643102187190       -0.06029820460571
H            3.71247264356769        1.21471455160235        1.06488849150277
H            4.00791497605742        1.03430808813993       -0.67357694370751
H            2.69910007168542        2.09770118228144       -0.09130154882931
H            3.56654120610678       -1.63682992603973        0.04233140067262
H           -1.67107961066214        3.09322851271934       -0.02552706933167
H           -2.82428953597071        2.09428624779827       -0.95318082946668
H           -2.87644029173232        2.07745725625962        0.81450067533302
H           -1.17061996399332       -3.19584890659852        0.83242232437030
H           -1.14560257411436       -3.17511610292205       -0.95688275822323
H           -2.55549792440841       -2.55659984320617       -0.07459039797972
H            1.38130855184625       -2.94313852034425       -0.01389874181052
25
 energy: -2.512466561839 xtb: 6.6.1 (8d0f1dd)
C            3.23754049213922        1.18383620760663        0.08514531642296
N            2.33042905222703        0.07828211673977        0.03752302490243
C            2.64690825150987       -1.26409935682823        0.03183896536740
N            1.44413304640969       -1.93895775261066        0.00162113004786
C            0.40679289062204       -1.05188184557370       -0.00858864323963
C            0.94321553693979        0.22243506635983        0.01477458085820
C            0.09716769141848        1.39938730191700       -0.00501961082582
O            0.48415856136187        2.56849588652878       -0.00343400479700
N           -1.26881048704246        1.05907236388214       -0.03118726566075
C           -2.24001400785260        2.15175364886385       -0.04923013170049
C           -1.82728843341409       -0.19327054754685       -0.04811376592564
O           -3.02402568239766       -0.37835297473552       -0.07153313091358
N           -0.93089479641797       -1.29084763491367       -0.03769799772690
C           -1.47705995292736       -2.63024537051956       -0.06094797577711
H            3.70899881317164        1.23976418624243        1.06860680420926
H            4.00370623213637        1.05904123410263       -0.67861803009068
H            2.67923354681089        2.10472144897505       -0.09155283193167
H            3.66875373260550       -1.77549063024892        0.04795947089350
H           -1.69261426737602        3.09143076988687       -0.02450270704618
H           -2.84965166797487        2.09709165976633       -0.95154550394857
H           -2.90108033164535        2.07914899990918        0.81463726976514
H           -1.17518840576127       -3.18135111276484        0.83130572930831
H           -1.15024293843755       -3.16087030794459       -0.95694112583325
H           -2.56335063063008       -2.54107485329518       -0.07531623568336
H            1.36139842246106       -2.93898990162677       -0.01214943452712
25
 energy: 6.225557867033 xtb: 6.6.1 (8d0f1dd)
C            3.23459601117291        1.19837640895832        0.08491117902520
N            2.36108489904317        0.06845915009987        0.03333844754844
C            2.71014137774857       -1.31362290518086        0.03432425205639
N            1.45094583681394       -1.93804396140678        0.00332560621065
C            0.42428912208657       -1.04600746620289       -0.00912323608855
C            0.95558732470247        0.22831256774060        0.01208477408442
C            0.10410744275782        1.39014296168053       -0.00571728233501
O            0.45954912943846        2.57726141133563       -0.00338428285974
N           -1.28331985220997        1.05976844075405       -0.03147389435760
C           -2.26012023377670        2.15087007443087       -0.04799163848848
C           -1.82717693362427       -0.18512477556163       -0.04932399869051
O           -3.02752882895130       -0.37942211781465       -0.07347914156503
N           -0.92967478469993       -1.27642934084597       -0.03864294373191
C           -1.48285583609756       -2.61047851231154       -0.06193627628991
H            3.70447524456411        1.27621396604599        1.06912088324608
H            4.00218613170459        1.09982243151741       -0.68181416708782
H            2.65163138885540        2.10693795661087       -0.09176237902940
H            3.75684969833752       -1.92935199131322        0.05465875918561
H           -1.72120009618585        3.09586550584420       -0.02288164103468
H           -2.87594302419462        2.09723403599679       -0.94799536406767
H           -2.92602453659944        2.07747986091549        0.81396303666893
H           -1.18365488806210       -3.16427724798261        0.83027655954330
H           -1.15860762163184       -3.14398604639414       -0.95791471013693
H           -2.56958461520130       -2.51748697785751       -0.07640795445631
H            1.34246231194554       -2.93348482688677       -0.00912069120216
25
 energy: 13.043402737254 xtb: 6.6.1 (8d0f1dd)
C            3.22893908876245        1.20548401290235        0.08416491160185
N            2.37246649826013        0.06012931703069        0.03085934612189
C            2.73535456288316       -1.33696573026407        0.03570379286478
N            1.45666449466076       -1.93992358191425        0.00545550961346
C            0.43256981865679       -1.04744829141579       -0.00853104592036
C            0.96195311727678        0.22904178647029        0.01149299337504
C            0.11101637411614        1.38936285254164       -0.00558344155104
O            0.44887622321237        2.57872125044016       -0.00332571084820
N           -1.28629308159995        1.06462954735488       -0.03163603713167
C           -2.26780662805298        2.15218037716925       -0.04732074030617
C           -1.82361880946272       -0.18134423090076       -0.05004945792129
O           -3.02342931516399       -0.38050395343725       -0.07519900213322
N           -0.92564155272202       -1.27057683012521       -0.03879442339312
C           -1.48609247866015       -2.60122081672721       -0.06253979458530
H            3.69778999587647        1.29729424695603        1.06808912006985
H            3.99957984315627        1.12720986950092       -0.68242021964231
H            2.63111392672308        2.10537018650906       -0.09246982345746
H            3.80016402786477       -2.00543247752168        0.05615519207756
H           -1.73734097492955        3.10136696351754       -0.02187649685916
H           -2.88590394318142        2.09486788855014       -0.94622514077644
H           -2.93515459192654        2.07384383438508        0.81385367628489
H           -1.19139294860504       -3.15583413948526        0.83026759886656
H           -1.16583495372735       -3.13539190839563       -0.95918331411812
H           -2.57269988371584       -2.50093555587089       -0.07727893077419
H            1.33693585823458       -2.93489601509801       -0.00657466531053
25
 energy: 15.438672580321 xtb: 6.6.1 (8d0f1dd)
C            3.22598672679639        1.20725590857448        0.08398730026839
N            2.37254437199415        0.05904873612302        0.02990928240811
C            2.73810804203193       -1.34014364430229        0.03617914403857
N            1.45886893939529       -1.94005795381180        0.00621699747771
C            0.43327384383851       -1.04901412795008       -0.00810220324599
C            0.96218706153830        0.22919146172553        0.01156981862010
C            0.11355723311478        1.39158757075855       -0.00556252086108
O            0.44564870718394        2.57938949588612       -0.00332924794742
N           -1.28613286339316        1.06711654560335       -0.03170776079426
C           -2.26867222176217        2.15307919350078       -0.04722749694856
C           -1.82289957019035       -0.18062901288672       -0.05017245708378
O           -3.02203235440489       -0.38031923421596       -0.07569964032946
N           -0.92431275528889       -1.26973550276652       -0.03860738635161
C           -1.48712486421338       -2.60012547348251       -0.06258642371095
H            3.69415717925361        1.30044002511360        1.06771455063645
H            3.99706843284449        1.13276246324295       -0.68191400897829
H            2.62629614261786        2.10500414210246       -0.09291532317124
H            3.81692763388361       -2.02430471443744        0.05571184704419
H           -1.74041120840849        3.10301500306890       -0.02174324384109
H           -2.88673122922200        2.09433597066543       -0.94614052765620
H           -2.93580496849504        2.07309984607136        0.81407301560739
H           -1.19375654462018       -3.15466598391875        0.83026956526418
H           -1.16804643068116       -3.13404925692481       -0.95937590037347
H           -2.57369519454948       -2.49805862756310       -0.07741382522520
H            1.33721055867254       -2.93519422800447       -0.00609965869917
25
 energy: 17.545969543412 xtb: 6.6.1 (8d0f1dd)
C            3.22445449212344        1.20784361934905        0.08394792856665
N            2.37028116814221        0.05995582478081        0.02888898965437
C            2.73545126066608       -1.33845712250322        0.03678591243328
N            1.46004467953899       -1.93917228733964        0.00660684242694
C            0.43187437723668       -1.05015554575185       -0.00790975732571
C            0.96089359345979        0.22939673271027        0.01161287064647
C            0.11515625719932        1.39433619366043       -0.00568940248629
O            0.44298477534436        2.58059998998796       -0.00329004011377
N           -1.28597585459427        1.06836320483578       -0.03178277425133
C           -2.26874160515833        2.15337920267014       -0.04722295707628
C           -1.82360485769549       -0.18060589247998       -0.05019723802190
O           -3.02205970497927       -0.37979604595697       -0.07583747750975
N           -0.92410829945164       -1.26960930821029       -0.03843025343179
C           -1.48795636227166       -2.60052362330913       -0.06252861710217
H            3.69202808518665        1.29974479105432        1.06772659558422
H            3.99560237163452        1.13302710457625       -0.68125403596515
H            2.62586831518875        2.10530866944070       -0.09330184796694
H            3.83401732200754       -2.03456260271970        0.05524880092622
H           -1.74129460019299        3.10348108989304       -0.02175518079115
H           -2.88664450990731        2.09446429590416       -0.94621108204892
H           -2.93563304220781        2.07321360306303        0.81423227603729
H           -1.19469330250561       -3.15459712912555        0.83028278328546
H           -1.16902729841962       -3.13383313135940       -0.95938619695028
H           -2.57449702403110       -2.49821556650402       -0.07733895931131
H            1.33779443162293       -2.93455746449422       -0.00616328306090
25
 energy: 18.719753265646 xtb: 6.6.1 (8d0f1dd)
C            3.22485625768252        1.20752480305906        0.08399871915502
N            2.36843124429430        0.06139931363601        0.02827733357761
C            2.73106719034020       -1.33493156735678        0.03734894783282
N            1.45963205289765       -1.93818059019218        0.00659878835436
C            0.43007220976936       -1.04998220368624       -0.00801411464346
C            0.95952613927560        0.22965264201843        0.01159763702721
C            0.11514665046317        1.39534235038125       -0.00577492696450
O            0.44224804557937        2.58156658524852       -0.00320068581875
N           -1.28644277987735        1.06786120635802       -0.03180435797134
C           -2.26872980534987        2.15314839149251       -0.04728066443890
C           -1.82502387657347       -0.18082449980598       -0.05015508647116
O           -3.02327294835710       -0.37952737321927       -0.07569796206299
N           -0.92500782621612       -1.26973995986124       -0.03838549351713
C           -1.48825820352853       -2.60126036468030       -0.06247410409327
H            3.69226275136329        1.29772701072983        1.06801845411926
H            3.99594489626597        1.13039037432490       -0.68106308508516
H            2.62797002966310        2.10609425241933       -0.09333774715968
H            3.84505351796648       -2.03647626086713        0.05499384286519
H           -1.74075984470899        3.10308853153027       -0.02182244913376
H           -2.88659176726723        2.09495441049835       -0.94631849740881
H           -2.93562642134270        2.07377628250843        0.81420717365088
H           -1.19429687404113       -3.15501372983696        0.83029436787635
H           -1.16873829303047       -3.13421642243237       -0.95932836553970
H           -2.57476954576244       -2.49970055426095       -0.07723157636837
H            1.33752186843063       -2.93364402583346       -0.00641225163443
25
 energy: 19.264830789591 xtb: 6.6.1 (8d0f1dd)
C            3.22553305590200        1.20718307756878        0.08404144293948
N            2.36797088433487        0.06209364578316        0.02808777870164
C            2.72828329360712       -1.33266983691528        0.03785301715170
N            1.45877278636002       -1.93785428477427        0.00647276880809
C            0.42918946878865       -1.04927705068514       -0.00820502670550
C            0.95885779028743        0.22991274987697        0.01152602542505
C            0.11438510724359        1.39501342516627       -0.00582377892788
O            0.44280308844194        2.58182607838504       -0.00316871711692
N           -1.28717129755028        1.06711729641705       -0.03180669745462
C           -2.26892990797926        2.15306559669006       -0.04730848203956
C           -1.82596052402454       -0.18079211459426       -0.05012664907540
O           -3.02430453255279       -0.37958375929586       -0.07554196933477
N           -0.92593278385363       -1.26983209817455       -0.03842877106435
C           -1.48824154898634       -2.60156079438407       -0.06246979371501
H            3.69298242476047        1.29668238671773        1.06821323748160
H            3.99655535601619        1.12859542583933       -0.68117276438451
H            2.62937543942046        2.10667197208687       -0.09321766021055
H            3.85071625909019       -2.03627756164913        0.05489058821628
H           -1.74017718818607        3.10277124732254       -0.02184100500461
H           -2.88678955834370        2.09540129083942       -0.94637179966568
H           -2.93588138648393        2.07425839196155        0.81417196093994
H           -1.19376497390452       -3.15530311233531        0.83028822479031
H           -1.16824815045819       -3.13453382682554       -0.95929553037599
H           -2.57474457563115       -2.50064190212814       -0.07720758530990
H            1.33693614163768       -2.93323764072120       -0.00652491792156
25
 energy: 19.429779146353 xtb: 6.6.1 (8d0f1dd)
C            3.22572847560129        1.20708756861328        0.08404967304469
N            2.36825921146882        0.06204233765121        0.02814011390115
C            2.72754224796610       -1.33214393645885        0.03820521508382
N            1.45828457436747       -1.93803012094177        0.00637760701517
C            0.42917250408312       -1.04882816105228       -0.00833136028264
C            0.95875560003404        0.23007765973608        0.01144212873607
C            0.11368343241623        1.39451202352255       -0.00585107687489
O            0.44347484644721        2.58165397281413       -0.00320477002043
N           -1.28759032888574        1.06691288255875       -0.03180360772215
C           -2.26914245587984        2.15321891681027       -0.04729960365045
C           -1.82612477786258       -0.18060202007058       -0.05011832914694
O           -3.02458636451229       -0.37972437836648       -0.07547564126912
N           -0.92630424322849       -1.26988551543864       -0.03847835854030
C           -1.48815488508819       -2.60150442541001       -0.06249037032290
H            3.69323483597846        1.29668521346737        1.06822979568632
H            3.99672047957760        1.12839162545959       -0.68128894112543
H            2.62947172657592        2.10675795065911       -0.09313019531395
H            3.85245324283276       -2.03633141610445        0.05482080612075
H           -1.73997474893577        3.10275155307778       -0.02182318368801
H           -2.88697944180275        2.09562176129283       -0.94636899699236
H           -2.93608576139214        2.07447438269155        0.81417824930146
H           -1.19359329594094       -3.15535814155331        0.83027273537495
H           -1.16806587671398       -3.13462068796644       -0.95929454446098
H           -2.57467919423027       -2.50080106254687       -0.07723200605213
H            1.33671486506019       -2.93332938027278       -0.00649144265441
25
 energy: 19.473362679392 xtb: 6.6.1 (8d0f1dd)
C            3.22563349059139        1.20710326174748        0.08403642422702
N            2.36870338681989        0.06172437347791        0.02827831201492
C            2.72757817325925       -1.33228038374405        0.03858046424081
N            1.45804001319565       -1.93837606498304        0.00628924059525
C            0.42945202967786       -1.04861026520929       -0.00843887713371
C            0.95881204542169        0.23019059893433        0.01132735495391
C            0.11304366946171        1.39417162298825       -0.00588504455870
O            0.44402213077017        2.58138755777083       -0.00326852779094
N           -1.28772374501770        1.06706400099867       -0.03179821676343
C           -2.26929739895727        2.15344512623269       -0.04727054612211
C           -1.82593654309817       -0.18038202719981       -0.05012188595272
O           -3.02448565853823       -0.37980427696803       -0.07545246907762
N           -0.92636349310321       -1.26994993838713       -0.03853057875684
C           -1.48809333948808       -2.60134235195623       -0.06251893808184
H            3.69319334634405        1.29702573030737        1.06816061555985
H            3.99661979410529        1.12884543368070       -0.68135796405817
H            2.62899795132153        2.10657373602080       -0.09308894928305
H            3.85282806400012       -2.03667674817037        0.05470653268344
H           -1.73998588848958        3.10287002283769       -0.02179020285433
H           -2.88710528955609        2.09570573927264       -0.94633380940074
H           -2.93619840055455        2.07453833368641        0.81420800556823
H           -1.19363331373664       -3.15531100948545        0.83025451761672
H           -1.16808759743381       -3.13460322279650       -0.95930920661505
H           -2.57465253942307       -2.50065620062701       -0.07726530247253
H            1.33685378036401       -2.93362444625681       -0.00637705239113
