25
 energy: 0.000000000000 xtb: 6.6.1 (8d0f1dd)
C            3.23720132972391        1.16630909158653        0.08434468864950
N            2.29877796055224        0.07527476373246        0.03981602671198
C            2.58028186251803       -1.21425391179017        0.03006175752192
N            1.43813944744728       -1.93419254010258        0.00098261751768
C            0.39035684826767       -1.05887462812143       -0.00790371763344
C            0.93510047688824        0.21347817468824        0.01709077332874
C            0.09450143016486        1.40504290868848       -0.00410946993748
O            0.49712746915594        2.54126690785742       -0.00342325656480
N           -1.25076628431515        1.06271869620815       -0.03085477937476
C           -2.21907191394203        2.15522079838987       -0.05001256521996
C           -1.81739470187490       -0.20012724136556       -0.04692818139228
O           -2.99983858926755       -0.37846413507442       -0.07008877579474
N           -0.92618577614240       -1.30210203518959       -0.03682761236648
C           -1.46982251276835       -2.64643077634382       -0.06029819901142
H            3.71247229913541        1.21471443890471        1.06488839270555
H            4.00791460421487        1.03430799217987       -0.67357688121503
H            2.69909982127087        2.09770098766290       -0.09130154035862
H            3.56654087521359       -1.63682977417947        0.04233139674524
H           -1.67107945562430        3.09322822573871       -0.02552706696334
H           -2.82428927394145        2.09428605349656       -0.95318074103337
H           -2.87644002486466        2.07745706351925        0.81450059976605
H           -1.17061985538665       -3.19584861009707        0.83242224714061
H           -1.14560246782873       -3.17511580834413       -0.95688266944647
H           -2.55549768731684       -2.55659960601237       -0.07459039105944
H            1.38130842369251       -2.94313824728853       -0.01389874052104
25
 energy: -1.524597162575 xtb: 6.6.1 (8d0f1dd)
C            3.23618335360120        1.18468956939647        0.08497088534131
N            2.33209238384586        0.07683256882017        0.03754632753632
C            2.65281845270937       -1.26721776904785        0.03196407609617
N            1.44594240903059       -1.93798739377126        0.00167931747988
C            0.40726779082525       -1.05108730024491       -0.00856895086570
C            0.94370735002761        0.22277895942970        0.01482407568062
C            0.09588086041050        1.40009295635422       -0.00493921337545
O            0.48181421206461        2.56945635617415       -0.00331314078753
N           -1.27024083753531        1.06016623543769       -0.03119086299270
C           -2.24198962264248        2.15279743201729       -0.04922462310448
C           -1.82815333940413       -0.19240167226357       -0.04815363028450
O           -3.02483662041680       -0.37768510803496       -0.07161943657317
N           -0.93113568295683       -1.28985128000032       -0.03771998485953
C           -1.47769586694064       -2.62932406662993       -0.06099287803399
H            3.70708660163116        1.24071546070554        1.06847606454617
H            4.00208402512213        1.05981425129998       -0.67866276585975
H            2.67795143201545        2.10593063519025       -0.09182764929016
H            3.68292478324010       -1.79059698267059        0.04836480215247
H           -1.69557484080081        3.09311638209624       -0.02448342249404
H           -2.85178090584631        2.09787246258013       -0.95145941532419
H           -2.90318213283680        2.07985872743050        0.81455657446424
H           -1.17577551044440       -3.18041641340845        0.83122614057829
H           -1.15084335781181       -3.15993130080844       -0.95695796697418
H           -2.56413527367838       -2.54104935923916       -0.07536684891851
H            1.36180464176327       -2.93754456206884       -0.01209356194297
25
 energy: 10.712803643474 xtb: 6.6.1 (8d0f1dd)
C            3.23127760569942        1.20052697945796        0.08463364539956
N            2.36398499033117        0.06579392334645        0.03341870560437
C            2.72405788358989       -1.32046404900918        0.03449063369751
N            1.45483984764813       -1.93553631197774        0.00340443918207
C            0.42510997763437       -1.04430406520298       -0.00899587456511
C            0.95595189463956        0.22943511817770        0.01234692626191
C            0.10115074189993        1.39192456706346       -0.00543591491892
O            0.45351544921773        2.57982548520318       -0.00305617405689
N           -1.28680727491925        1.06229489121273       -0.03146990078285
C           -2.26453097703233        2.15347032543359       -0.04805621628579
C           -1.82934884020221       -0.18317025213936       -0.04935877881889
O           -3.02971695147098       -0.37785539540175       -0.07363507723000
N           -0.93062505639807       -1.27427947383832       -0.03863677658802
C           -1.48439529438251       -2.60864990265621       -0.06199308986800
H            3.70013312104459        1.27840079265152        1.06901310875920
H            3.99843625258221        1.10121424206542       -0.68180009681037
H            2.64907766307216        2.10999698596937       -0.09250153374943
H            3.79165642836438       -1.96547250750700        0.05525737426737
H           -1.72744229842381        3.09964587384225       -0.02293688594937
H           -2.88059313337198        2.09935006474435       -0.94799558698438
H           -2.93070399088422        2.07953539012633        0.81377677351306
H           -1.18483089490242       -3.16238310787261        0.83011596006060
H           -1.15982911376272       -3.14207095709852       -0.95788674924644
H           -2.57147985687518       -2.51806210952600       -0.07647317492796
H            1.34332613187459       -2.93013771832059       -0.00919182376865
25
 energy: 22.115715369627 xtb: 6.6.1 (8d0f1dd)
C            3.22402484701278        1.20941041211718        0.08387035200833
N            2.37636005394092        0.05725769481790        0.03081912763632
C            2.75700009221873       -1.34837753750704        0.03584717508134
N            1.46208158474841       -1.93664020466620        0.00558002287069
C            0.43405555854444       -1.04516300294630       -0.00829046190690
C            0.96178476052556        0.23139002813207        0.01194547058923
C            0.10699033122727        1.39204363941762       -0.00511748320954
O            0.43892043311533        2.58289915020315       -0.00280948714941
N           -1.29218690714039        1.06852497460196       -0.03164503775391
C           -2.27518578565510        2.15600902396137       -0.04743643496711
C           -1.82702650030543       -0.17830875625391       -0.05011626562379
O           -3.02701708101252       -0.37844068828331       -0.07545771314064
N           -0.92728307505987       -1.26703410874593       -0.03877434301981
C           -1.48877448847561       -2.59787490924532       -0.06261977781120
H            3.69147532931412        1.30219949868587        1.06813771298083
H            3.99437514196584        1.13099337079267       -0.68241460193843
H            2.62653163232090        2.10993219017456       -0.09367944912841
H            3.86058665745010       -2.06662028098425        0.05710863933795
H           -1.74728738781858        3.10673756451453       -0.02198082914086
H           -2.89379466299777        2.09821484838596       -0.94621720713184
H           -2.94311243278461        2.07712764116022        0.81351141599032
H           -1.19352117764847       -3.15232590415690        0.83006876099354
H           -1.16805120623245       -3.13184573953083       -0.95918399627379
H           -2.57587544435747       -2.50062688958052       -0.07735867208025
H            1.33714403207631       -2.93045322632053       -0.00675300501814
25
 energy: 28.771526250163 xtb: 6.6.1 (8d0f1dd)
C            3.21991468159085        1.21280368983600        0.08371599682775
N            2.37552471599245        0.05782059576201        0.02958988063795
C            2.76316222408974       -1.35363629343682        0.03614218003880
N            1.46455251082558       -1.93567289057464        0.00628689590615
C            0.43439369907153       -1.04609675324142       -0.00784489585560
C            0.96039106867150        0.23323487574138        0.01213210129110
C            0.10847181473476        1.39583284340212       -0.00504629192346
O            0.43204083465131        2.58497774541137       -0.00276456715816
N           -1.29423140682811        1.07234817135684       -0.03177176311848
C           -2.27833750104364        2.15791925336544       -0.04737629488971
C           -1.82766056018992       -0.17688702378841       -0.05025797210511
O           -3.02686723425818       -0.37810291172262       -0.07596579827811
N           -0.92677974774127       -1.26508987960551       -0.03860269337593
C           -1.49045295006653       -2.59595244109779       -0.06266672406541
H            3.68667865397939        1.30676352237462        1.06775743305841
H            3.99074050984890        1.13784902005644       -0.68174726554880
H            2.62136008390032        2.11138397597941       -0.09437110916254
H            3.90304542286389       -2.10877783698923        0.05737894229852
H           -1.75265885801209        3.10925225395442       -0.02189049850333
H           -2.89688892132711        2.09855651348839       -0.94620480090951
H           -2.94600664093114        2.07727191898897        0.81376258464547
H           -1.19621064498128       -3.15011713505115        0.83002122922306
H           -1.17069628999767       -3.12947205302153       -0.95935024772491
H           -2.57762972859558       -2.49767420684743       -0.07744685619921
H            1.33635856872474       -2.92950616559684       -0.00644555291436
25
 energy: 39.800511325685 xtb: 6.6.1 (8d0f1dd)
C            3.21614302913870        1.21631759325979        0.08370493782125
N            2.36768295074310        0.06457716299282        0.02789031352602
C            2.75870052192155       -1.35021394576150        0.03609123630422
N            1.46480409491377       -1.93170684502842        0.00665462140981
C            0.42985376485818       -1.04614063429252       -0.00752782340726
C            0.95403631283722        0.23680799135317        0.01259543810472
C            0.10809082476577        1.40313018366633       -0.00506909411320
O            0.42326289452981        2.58898522424138       -0.00257276617606
N           -1.29752602726728        1.07599669726311       -0.03199098759862
C           -2.28165910358250        2.15970282177650       -0.04747805666851
C           -1.83151429552264       -0.17609702768166       -0.05032898125363
O           -3.02937737857403       -0.37705807115499       -0.07613156451143
N           -0.92864246243353       -1.26348594909243       -0.03839058403390
C           -1.49252886754519       -2.59595785004242       -0.06259419558122
H            3.68269474448544        1.30667797017757        1.06763133969022
H            3.98692905953158        1.13828295778956       -0.68066268602122
H            2.62190328191932        2.11579941055362       -0.09512087144560
H            3.97838360435496       -2.16438368591023        0.05826554992548
H           -1.75660609162540        3.11080942148568       -0.02199423535937
H           -2.89969633445847        2.09998234259592       -0.94652778305326
H           -2.94871726011442        2.07869201504448        0.81400869286799
H           -1.19756255116059       -3.14886854562525        0.83000706721832
H           -1.17219770540705       -3.12806686814169       -0.95931524806580
H           -2.57979708062412       -2.49878776373121       -0.07732801827349
H            1.33555437928828       -2.92596581699357       -0.00678238911086
25
 energy: 55.211212141349 xtb: 6.6.1 (8d0f1dd)
C            3.21331201156549        1.22029251422809        0.08383598936041
N            2.35299542663859        0.07848531616582        0.02581246421821
C            2.73797281509755       -1.33381710621170        0.03416944535812
N            1.45996276659054       -1.92417407338480        0.00631323654144
C            0.41948344308681       -1.04322844521501       -0.00739120950955
C            0.94262039790996        0.24232484601599        0.01346635165692
C            0.10418330797117        1.41175615964027       -0.00479092219108
O            0.41497271313694        2.59514281089129       -0.00208374688428
N           -1.30297434214059        1.07764644994956       -0.03219107724407
C           -2.28534460291263        2.16099268622662       -0.04783356187476
C           -1.83932305580009       -0.17562470494525       -0.05026215876625
O           -3.03582537542753       -0.37534045409477       -0.07599376725921
N           -0.93455475757978       -1.26203184526621       -0.03809501363509
C           -1.49498464315137       -2.59754567959012       -0.06241900656934
H            3.68055955971698        1.30262779918341        1.06796477627888
H            3.98344948491466        1.13206819059600       -0.68010459228165
H            2.62727146841288        2.12438928159811       -0.09519544163993
H            4.09910087997343       -2.24049876553564        0.06101166099161
H           -1.75857432369797        3.11127066418004       -0.02232771422102
H           -2.90256660728906        2.10259062494847       -0.94726794936980
H           -2.95177836107009        2.08148993888881        0.81400137919772
H           -1.19725474421144       -3.14875510468807        0.83004599003352
H           -1.17200875779394       -3.12782964618136       -0.95902947519785
H           -2.58223995527781       -2.50387067224453       -0.07714744438767
H            1.33375955630974       -2.91933199641099       -0.00745430041074
25
 energy: 54.935767445476 xtb: 6.6.1 (8d0f1dd)
C            3.20147812383490        1.23066344304872        0.08397962832749
N            2.31636740993497        0.10795035547072        0.01977973060384
C            2.68939542407794       -1.29451571573191        0.01345548148623
N            1.45091873524734       -1.90092588015735        0.00488908228707
C            0.39624286738866       -1.03456580263010       -0.00552162117890
C            0.91630099969946        0.25743713010974        0.01719291531571
C            0.09621315606886        1.43275214829777       -0.00151430668512
O            0.39471943941415        2.60694471506682       -0.00096913804182
N           -1.31529102664769        1.08493470839815       -0.03262021277991
C           -2.29472412516791        2.16505429451404       -0.04872444303831
C           -1.85449657829043       -0.17353645510126       -0.05035214206885
O           -3.04702725128098       -0.37182473885569       -0.07671267707367
N           -0.94756877873327       -1.25667694323512       -0.03644637349754
C           -1.50008541190110       -2.59875883320008       -0.06195126544958
H            3.67139248529939        1.29823796602711        1.06685416458148
H            3.97128978718643        1.12659264423871       -0.67809244693187
H            2.63034986026415        2.14137496429309       -0.09513195944818
H            4.39457921585299       -2.45542931755023        0.07860040857620
H           -1.76622167727604        3.11398353039284       -0.02295385075123
H           -2.90962937581940        2.10600652891335       -0.94903346884071
H           -2.95902053623257        2.08495367698425        0.81411206202602
H           -1.19777880188356       -3.14652951581151        0.83024741695902
H           -1.17233526915968       -3.12509927116431       -0.95840895572077
H           -2.58703391721278       -2.51014938735411       -0.07694996562901
H            1.33417955030864       -2.89984545621966       -0.00669415083303
25
 energy: 54.044874506338 xtb: 6.6.1 (8d0f1dd)
C            3.18616389785468        1.23758250092841        0.08239702432960
N            2.27205523345218        0.13299937809230        0.02122864430449
C            2.63089304468996       -1.24026400757527        0.01396193435352
N            1.43866569524373       -1.86936077368731        0.00383805902634
C            0.36731239484922       -1.01967337134298       -0.00502338073251
C            0.88888180476777        0.27032530409204        0.01882185312253
C            0.08089992953638        1.45359249124426       -0.00322311897487
O            0.37455871279309        2.61028426883211       -0.00064826643796
N           -1.32538670945399        1.09427826432168       -0.03318106500597
C           -2.30366110815677        2.17011510462828       -0.04863629995107
C           -1.86926086458088       -0.17244942022235       -0.05044755057438
O           -3.05774158492739       -0.36701805681837       -0.07660418321320
N           -0.96248713652877       -1.24933584233561       -0.03672819476481
C           -1.50457868917136       -2.59924228527982       -0.06209991084865
H            3.65981481760771        1.29143639620197        1.06315881903810
H            3.95770340196828        1.11562338292723       -0.67499223464977
H            2.63486907834145        2.15752738125553       -0.09779038967707
H            4.71957603408801       -2.68523418098272        0.08483642955698
H           -1.77455340555441        3.11829339054481       -0.02290962374796
H           -2.91614198365673        2.10868537273527       -0.94949471419898
H           -2.96535193651497        2.08756671905604        0.81504752882802
H           -1.19692390203247       -3.14355705187821        0.82958012870685
H           -1.17171302073726       -3.12205317011099       -0.95793331276190
H           -2.59123060176609       -2.51700422226514       -0.07699996772993
H            1.33985120286108       -2.87408878361713       -0.00912429580280
25
 energy: 52.701373820924 xtb: 6.6.1 (8d0f1dd)
C            3.17522337586894        1.23494382042139        0.08088267475520
N            2.24565406476348        0.13786980442332        0.03064789335755
C            2.59302090593593       -1.18538421205051        0.02435147675510
N            1.42100861792698       -1.84349626732093        0.00346882492645
C            0.34536098074456       -0.99958628890997       -0.00575513646957
C            0.87358705663588        0.27715404013221        0.01784358740323
C            0.05651919031058        1.45634138313926       -0.00556402562642
O            0.36786121545094        2.61479139786836       -0.00147051923646
N           -1.33232165005092        1.09528163662081       -0.03305384868451
C           -2.30816244860002        2.17336427534027       -0.04840902089512
C           -1.87913474121525       -0.17243997738019       -0.05057595545786
O           -3.07014517483116       -0.36174779542796       -0.07613030972836
N           -0.98116177901980       -1.24471061064937       -0.03850010647907
C           -1.50770351068287       -2.59893349193810       -0.06264463751296
H            3.65218409052054        1.28301249864888        1.06029338781694
H            3.94689303193540        1.09884386888569       -0.67446388912858
H            2.63964159963743        2.16459796453260       -0.09987186104930
H            4.94607439993657       -2.82119314571869        0.08007986610486
H           -1.77444364528621        3.11997406417236       -0.02267945804875
H           -2.91860260668221        2.11141657601917       -0.94992007916414
H           -2.96793149058227        2.09029395592749        0.81587789605510
H           -1.19413719031321       -3.14267633661484        0.82857661255976
H           -1.16917803560964       -3.12168438568405       -0.95751699589571
H           -2.59422281857966       -2.52515842142174       -0.07738304607424
H            1.34633086675841       -2.85184556427142       -0.01104941808859
25
 energy: 52.391935453659 xtb: 6.6.1 (8d0f1dd)
C            3.16882925285582        1.23548566275424        0.08111703153802
N            2.23553905664633        0.13915477279714        0.03566063956079
C            2.57891136154192       -1.15368496273133        0.02881524255261
N            1.40479171199451       -1.83641907479108        0.00295402249443
C            0.33511640370322       -0.98763487266348       -0.00836321806201
C            0.86303999192508        0.28484337770737        0.01526356833248
C            0.03350077651760        1.45422630761913       -0.00436985687265
O            0.36920370177717        2.61603257028562       -0.00177684044011
N           -1.33797936946077        1.09690394202066       -0.03248270427086
C           -2.31313560450952        2.17733713031141       -0.04881253778284
C           -1.88313923713913       -0.17098075662763       -0.05081698561100
O           -3.07769270940545       -0.35555860985348       -0.07571010891553
N           -0.99410715441558       -1.24345584741522       -0.04020187785325
C           -1.50994018761696       -2.59810753007401       -0.06270449057209
H            3.64849986507032        1.28016378150172        1.06001222750736
H            3.93903686871865        1.09184705794302       -0.67505391661936
H            2.63952040609514        2.16980616374356       -0.09871583622320
H            5.08893603810513       -2.90263687275288        0.07486689193828
H           -1.77460302816117        3.12197258299275       -0.02293058342612
H           -2.92166371177762        2.11489799911521       -0.95110327427318
H           -2.97177679138303        2.09400326399327        0.81571692557134
H           -1.19230811926207       -3.14182909426816        0.82833968347646
H           -1.16791616844878       -3.12180331809480       -0.95683418185244
H           -2.59663027215570       -2.53077405425481       -0.07713128705687
H            1.34818122375734       -2.84476083051420       -0.00870462094570
25
 energy: 52.294458934888 xtb: 6.6.1 (8d0f1dd)
C            3.16833203023213        1.23671918951180        0.08114510421911
N            2.23559188862707        0.14034203028671        0.03680696952837
C            2.57980911719597       -1.15233624315110        0.03093313597280
N            1.39926593388602       -1.83964572792466        0.00247628566583
C            0.33631047749049       -0.98598387912015       -0.00901961155139
C            0.86007755122554        0.28869056902694        0.01408966751703
C            0.02544624666223        1.45326914567103       -0.00543224117955
O            0.37177222371398        2.61563426414775       -0.00264249682846
N           -1.33941995225261        1.09802319697155       -0.03272390060841
C           -2.31504681229397        2.17847338673644       -0.04840188499477
C           -1.88227387952410       -0.17039216652809       -0.05059038369600
O           -3.07787832141047       -0.35440936986519       -0.07512901675719
N           -0.99498032991365       -1.24368301514388       -0.04037465040770
C           -1.50952095965661       -2.59706624329761       -0.06296902558905
H            3.64816361668611        1.28117160440935        1.06008646182187
H            3.93845740225614        1.09125960147299       -0.67507976836914
H            2.63891587828610        2.17073125071808       -0.09935458748550
H            5.10746008520381       -2.91383020872099        0.07561950701203
H           -1.77447177859362        3.12204860752079       -0.02285558545523
H           -2.92322442578817        2.11525443753063       -0.95061159987138
H           -2.97259283150510        2.09448735132856        0.81665085729148
H           -1.19208233298373       -3.14136474410754        0.82806874431258
H           -1.16737752935702       -3.12128908924632       -0.95702669597497
H           -2.59634290406891       -2.53062359183103       -0.07754749218085
H            1.34782391085476       -2.84645156765205       -0.00908388019697
25
 energy: 52.245374805861 xtb: 6.6.1 (8d0f1dd)
C            3.16871144918274        1.23679850681061        0.08119195898966
N            2.23595804196064        0.14078987869277        0.03696474374346
C            2.58001871109942       -1.15261352596421        0.03087467589285
N            1.39585940947156       -1.84193381327287        0.00247852025627
C            0.33817719257545       -0.98571638407147       -0.00928584577622
C            0.85904167301041        0.29024655818967        0.01381452939105
C            0.02078757400948        1.45239283627701       -0.00479661024628
O            0.37518947344541        2.61410576107621       -0.00186596859827
N           -1.33902489753300        1.09868699446406       -0.03256639339890
C           -2.31545252322277        2.17877421991301       -0.04866921237293
C           -1.88098543350577       -0.17048984890294       -0.05061830365371
O           -3.07706499974481       -0.35389380459657       -0.07541049884737
N           -0.99443536467691       -1.24411430377835       -0.04019017996237
C           -1.50924005605930       -2.59649545833120       -0.06278260522649
H            3.64888527789604        1.28099664011783        1.05999003907968
H            3.93869573371790        1.09207074371176       -0.67542122493024
H            2.63823611063678        2.17012039172323       -0.09860398739341
H            5.10588435969514       -2.91122978588633        0.07426210255172
H           -1.77431750676691        3.12199864189364       -0.02286297238744
H           -2.92289306564949        2.11504530153757       -0.95113048901496
H           -2.97308194836577        2.09422809200306        0.81602446058119
H           -1.19231386132151       -3.14130525815659        0.82825480689802
H           -1.16760046868509       -3.12134660894667       -0.95677158762382
H           -2.59620347052259       -2.53018418606346       -0.07732932971826
H            1.34938289432539       -2.84790279969574       -0.00851671603861
25
 energy: 52.222778985029 xtb: 6.6.1 (8d0f1dd)
C            3.16906847962789        1.23648372067243        0.08120130719925
N            2.23620176413029        0.14064271790428        0.03692421711985
C            2.58002540223739       -1.15325195377509        0.03131771407570
N            1.39513502665561       -1.84234998285091        0.00247743064315
C            0.33882833478138       -0.98591460677633       -0.00938185151015
C            0.85922158548305        0.29016412578488        0.01353540812864
C            0.01971106700806        1.45227201438863       -0.00553776469190
O            0.37590936739935        2.61379626895355       -0.00244805398572
N           -1.33862207883236        1.09878847398953       -0.03276206509196
C           -2.31538487147210        2.17877482917153       -0.04840977905281
C           -1.88087825102020       -0.17084011217340       -0.05058811497127
O           -3.07700082217796       -0.35366762111553       -0.07515247753909
N           -0.99429089503538       -1.24413319962152       -0.04019516165819
C           -1.50919736048087       -2.59647056683041       -0.06295619701380
H            3.64891452846125        1.28103564180034        1.06013226849661
H            3.93918725347884        1.09155259551746       -0.67521447773708
H            2.63859945281302        2.16980749136526       -0.09903423568469
H            5.10205265493993       -2.90771764352469        0.07502214513900
H           -1.77421116122506        3.12198870168032       -0.02284190473118
H           -2.92327178110649        2.11514595218920       -0.95056192367089
H           -2.97263515721718        2.09432479737054        0.81656082486512
H           -1.19223654141883       -3.14141039855718        0.82802361034043
H           -1.16750888465851       -3.12129208636724       -0.95697635539155
H           -2.59621530821652       -2.53037274422312       -0.07753103000772
H            1.35081250081791       -2.84832762622851       -0.00856962107519
25
 energy: 52.211795516064 xtb: 6.6.1 (8d0f1dd)
C            3.16909246094766        1.23628008251948        0.08121522964474
N            2.23630899148641        0.14032836296134        0.03666203618710
C            2.57988894844152       -1.15391998453413        0.03072584505200
N            1.39487462825127       -1.84232488879845        0.00248555175826
C            0.33892639193236       -0.98609961593595       -0.00923977945007
C            0.85961569640245        0.28972532499530        0.01396154198084
C            0.01959581829770        1.45230763030160       -0.00464752162006
O            0.37627183886342        2.61366825283227       -0.00165957359935
N           -1.33812757825867        1.09882823584196       -0.03246606646754
C           -2.31515572713053        2.17867428485376       -0.04876417611352
C           -1.88102646588371       -0.17119918909615       -0.05055134458991
O           -3.07709717563291       -0.35326503621846       -0.07545432144430
N           -0.99447948072902       -1.24391448435277       -0.03995920657985
C           -1.50934832733474       -2.59647591925052       -0.06273196411660
H            3.64911581705907        1.28069313977742        1.06005841246395
H            3.93894563869513        1.09192333434457       -0.67551861696503
H            2.63835970057402        2.16968064943134       -0.09846441847381
H            5.10050983247480       -2.90566995234756        0.07412986728374
H           -1.77426101531384        3.12206598324601       -0.02293270753999
H           -2.92256558933197        2.11496969735035       -0.95125814757351
H           -2.97294659878422        2.09423113093321        0.81581761802606
H           -1.19232397818803       -3.14132090647138        0.82828151774917
H           -1.16757115083908       -3.12129663538691       -0.95671407142646
H           -2.59632299618663       -2.53037696560886       -0.07730203509208
H            1.35193462516001       -2.84848374264343       -0.00863975689916
