25
 energy: 0.000000000000 xtb: 6.6.1 (8d0f1dd)
C            3.23720163006194        1.16630919979326        0.08434469647475
N            2.29877817382611        0.07527477071623        0.03981603040599
C            2.58028210190900       -1.21425402444508        0.03006176031096
N            1.43813958087363       -1.93419271955128        0.00098261760884
C            0.39035688448383       -1.05887472636071       -0.00790371836672
C            0.93510056364412        0.21347819449412        0.01709077491437
C            0.09450143893243        1.40504303904423       -0.00410947031874
O            0.49712751527797        2.54126714362870       -0.00342325688240
N           -1.25076640035757        1.06271879480407       -0.03085478223738
C           -2.21907211982101        2.15522099834493       -0.05001256985998
C           -1.81739487048744       -0.20012725993278       -0.04692818574614
O           -2.99983886758376       -0.37846417018721       -0.07008878229737
N           -0.92618586207120       -1.30210215599479       -0.03682761578324
C           -1.46982264913417       -2.64643102187190       -0.06029820460571
H            3.71247264356769        1.21471455160235        1.06488849150277
H            4.00791497605742        1.03430808813993       -0.67357694370751
H            2.69910007168542        2.09770118228144       -0.09130154882931
H            3.56654120610678       -1.63682992603973        0.04233140067262
H           -1.67107961066214        3.09322851271934       -0.02552706933167
H           -2.82428953597071        2.09428624779827       -0.95318082946668
H           -2.87644029173232        2.07745725625962        0.81450067533302
H           -1.17061996399332       -3.19584890659852        0.83242232437030
H           -1.14560257411436       -3.17511610292205       -0.95688275822323
H           -2.55549792440841       -2.55659984320617       -0.07459039797972
H            1.38130855184625       -2.94313852034425       -0.01389874181052
25
 energy: -3.450345878684 xtb: 6.6.1 (8d0f1dd)
C            3.23893033033040        1.18285455815344        0.08536006339049
N            2.32797474749296        0.08030326588234        0.03751472729063
C            2.63988105610860       -1.26007303352453        0.03165932476634
N            1.44183004927598       -1.93977574779339        0.00153984066358
C            0.40586903598328       -1.05270176508421       -0.00859474560674
C            0.94215482823351        0.22218407666245        0.01475132066318
C            0.09841203596474        1.39867792116705       -0.00510588697650
O            0.48674932192721        2.56740499999022       -0.00359653932178
N           -1.26724781511687        1.05779556945944       -0.03118589216192
C           -2.23749840100251        2.15065086211516       -0.04925787303188
C           -1.82641339629611       -0.19431454339220       -0.04804969680622
O           -3.02318308037542       -0.37910658202667       -0.07141348188119
N           -0.93087887903466       -1.29211714743464       -0.03765688865311
C           -1.47630869235986       -2.63157469590976       -0.06088098147026
H            3.71119337741620        1.23824326942968        1.06870668410398
H            4.00542081375610        1.05767237114681       -0.67846459847504
H            2.68111175493571        2.10362294637104       -0.09120020754942
H            3.65322816076172       -1.75793252966401        0.04740329887068
H           -1.68863438590142        3.08940731690232       -0.02454985429337
H           -2.84680703081477        2.09623007130893       -0.95173358107972
H           -2.89828459253583        2.07839773369340        0.81477615445296
H           -1.17439904508636       -3.18268628216010        0.83139890536586
H           -1.14943786411962       -3.16220939228090       -0.95689013928553
H           -2.56242507736755       -2.54155045346131       -0.07524427006993
H            1.36097741576076       -2.94037418737855       -0.01225178675780
25
 energy: 2.034612035597 xtb: 6.6.1 (8d0f1dd)
C            3.23795986866724        1.19588170956005        0.08530519650267
N            2.35605057704660        0.07271584305340        0.03333134428094
C            2.69366813654017       -1.30438998889947        0.03401116836251
N            1.44591305414854       -1.93996000330989        0.00316535748020
C            0.42216965663815       -1.04763283970297       -0.00923154339492
C            0.95357735158891        0.22757249858473        0.01189429251980
C            0.10661252620422        1.38856124917472       -0.00604400265955
O            0.46600637680539        2.57459452435823       -0.00385856775407
N           -1.27978221618897        1.05681978298617       -0.03150141986838
C           -2.25454963030668        2.14822456434567       -0.04799742807194
C           -1.82534631103586       -0.18750835107050       -0.04923351044132
O           -3.02568340669771       -0.38111874877191       -0.07321217705560
N           -0.92952384810299       -1.27926787392098       -0.03860773116971
C           -1.48110031099593       -2.61342796067198       -0.06181497252655
H            3.70949019911811        1.27204013522812        1.06917493387796
H            4.00592347712542        1.09627566799354       -0.68160870743052
H            2.65617088253185        2.10451229861128       -0.09074094894889
H            3.72075566021686       -1.88777165900601        0.05371751000064
H           -1.71230189382776        3.09117634790004       -0.02291483325902
H           -2.86966589650921        2.09519477131212       -0.94828567595105
H           -2.91977040836315        2.07561261272881        0.81430844635279
H           -1.18186241282643       -3.16720790685606        0.83046300968008
H           -1.15677096757710       -3.14694874441463       -0.95781921931322
H           -2.56745059257487       -2.51849349666867       -0.07628089942802
H            1.34172479631140       -2.93642583037181       -0.00918572563755
25
 energy: 5.677932182174 xtb: 6.6.1 (8d0f1dd)
C            3.23382664033783        1.20151563821787        0.08463200722661
N            2.36607557623439        0.06530710109838        0.03089129582465
C            2.71229916257654       -1.32339045436744        0.03535042459683
N            1.44985575354041       -1.94187199994919        0.00515702208976
C            0.42939172638291       -1.04912838085270       -0.00881797120199
C            0.95971379372169        0.22778311910801        0.01106184527136
C            0.11389923117287        1.38717385623421       -0.00615398746646
O            0.45797013004708        2.57505850690562       -0.00406109484657
N           -1.28130633937749        1.06035773580820       -0.03168402886187
C           -2.25983315391536        2.14856509804054       -0.04729542487138
C           -1.82125099679297       -0.18468517930287       -0.04992195253253
O           -3.02097684360049       -0.38269376355759       -0.07475917160064
N           -0.92545952138964       -1.27456679463471       -0.03880246922163
C           -1.48327502234710       -2.60570539761613       -0.06237796892311
H            3.70493155386859        1.28997581109584        1.06804050517064
H            4.00454188290167        1.12064891641469       -0.68225759068259
H            2.63852842126322        2.10238992560345       -0.09080567674597
H            3.74500722647583       -1.94412579143502        0.05515167791198
H           -1.72466801344876        3.09500841189400       -0.02189611324039
H           -2.87693241526092        2.09215851042018       -0.94657574777590
H           -2.92615638934605        2.07134031047419        0.81438601611577
H           -1.18831245865451       -3.16031622668648        0.83045589367750
H           -1.16271524125028       -3.13996002897866       -0.95896956383390
H           -2.56943253684646       -2.50367591015313       -0.07710130959310
H            1.33649250164320       -2.93813441160924       -0.00661272033978
25
 energy: 6.439320671010 xtb: 6.6.1 (8d0f1dd)
C            3.23131465012453        1.20279187285287        0.08440760730148
N            2.36701163089774        0.06326556668241        0.02991258769356
C            2.71411193848450       -1.32613589321220        0.03592127495956
N            1.45180217693442       -1.94237479033540        0.00604811620749
C            0.43042924070858       -1.05081269070292       -0.00840779509474
C            0.96091730937675        0.22725326600070        0.01098019736950
C            0.11718936893802        1.38851670855749       -0.00619454868909
O            0.45623187234836        2.57516674569191       -0.00414461480016
N           -1.28019839255884        1.06219619837800       -0.03174933525213
C           -2.25973211690221        2.14892557901277       -0.04713962972602
C           -1.81975828545996       -0.18419390061538       -0.05008293900907
O           -3.01888753538744       -0.38266017547169       -0.07533196607119
N           -0.92373402067250       -1.27406571925562       -0.03863473037414
C           -1.48399660994284       -2.60475515686614       -0.06245854514222
H            3.70186911378160        1.29303106012044        1.06761045412360
H            4.00252906187963        1.12654737304333       -0.68198397631881
H            2.63317173841574        2.10125846734414       -0.09096478124266
H            3.75009695681471       -1.95457650083526        0.05456082446989
H           -1.72693266551437        3.09632114118188       -0.02167121921958
H           -2.87688564194726        2.09106202157517       -0.94636214012196
H           -2.92588065064873        2.06993549575822        0.81462184890957
H           -1.19060876695407       -3.15944111004198        0.83047684147128
H           -1.16475453877938       -3.13891627950634       -0.95921586830676
H           -2.57006190911422       -2.50044492855104       -0.07732429901594
H            1.33697074311346       -2.93886574863331       -0.00583946797414
25
 energy: 6.661823182215 xtb: 6.6.1 (8d0f1dd)
C            3.23021652421123        1.20306526434494        0.08434443351293
N            2.36681029789900        0.06263895023944        0.02899954135331
C            2.71322807027934       -1.32574615862136        0.03652355177290
N            1.45286397040472       -1.94214190559308        0.00650330584001
C            0.43015866158443       -1.05182247536011       -0.00823569381731
C            0.96112020518336        0.22685330374680        0.01082230838778
C            0.11928904520881        1.38961866744018       -0.00633350735061
O            0.45514955975457        2.57568965896840       -0.00419306243974
N           -1.27936244302080        1.06269064483784       -0.03178184641950
C           -2.25910408960776        2.14881629904804       -0.04707333696240
C           -1.81944862446823       -0.18418453189876       -0.05012476070801
O           -3.01821995537834       -0.38235758276923       -0.07554554351766
N           -0.92310819923522       -1.27413139447874       -0.03847120316444
C           -1.48445432119716       -2.60492489291460       -0.06243424218943
H            3.70022688388573        1.29308258197157        1.06761774784580
H            4.00155832274225        1.12797940617661       -0.68164965403237
H            2.63157306113020        2.10067625505567       -0.09105273551119
H            3.75220872338133       -1.95646527244834        0.05397264219784
H           -1.72716839523150        3.09653777962913       -0.02160011298226
H           -2.87623358704280        2.09072450740671       -0.94631366699960
H           -2.92512934123032        2.06951439886516        0.81477577945983
H           -1.19149328276775       -3.15950905143383        0.83048022641579
H           -1.16556562079296       -3.13884163723861       -0.95925211962084
H           -2.57045826572849       -2.49994891335938       -0.07734302027846
H            1.33755746797257       -2.93878529944242       -0.00560113464507
25
 energy: 6.683979723960 xtb: 6.6.1 (8d0f1dd)
C            3.23027407724358        1.20292826576887        0.08436623177275
N            2.36666152659939        0.06267674229720        0.02831876511965
C            2.71221670065293       -1.32481160341908        0.03704059772608
N            1.45306128315524       -1.94177700293375        0.00663809334311
C            0.42967974017907       -1.05199365062932       -0.00827325456061
C            0.96094675719877        0.22680587953322        0.01064443305139
C            0.12009288970490        1.38990861310292       -0.00643723770746
O            0.45466342878443        2.57615911249793       -0.00420115258436
N           -1.27932096436742        1.06238659102646       -0.03178162743384
C           -2.25883765354314        2.14859624763589       -0.04706176351273
C           -1.81978720403645       -0.18426513155505       -0.05011071406602
O           -3.01847938074581       -0.38228219351443       -0.07553528934641
N           -0.92322261110449       -1.27423512134625       -0.03839078603475
C           -1.48459156948679       -2.60522566799565       -0.06239482478843
H            3.69999451072022        1.29236315266133        1.06781282981669
H            4.00171459889989        1.12752814811445       -0.68144760616275
H            2.63193861267385        2.10063046487765       -0.09104281277730
H            3.75302305001597       -1.95556675703352        0.05361955515563
H           -1.72681399927532        3.09630287656085       -0.02159276734969
H           -2.87598872773703        2.09081287339778       -0.94631845021129
H           -2.92487631899535        2.06961379790835        0.81481195618214
H           -1.19146783798277       -3.15973849239330        0.83048471040242
H           -1.16557628135697       -3.13900252732486       -0.95923339741793
H           -2.57056904915699       -2.50035053091115       -0.07728462668970
H            1.33747908989645       -2.93843548415451       -0.00559696577929
25
 energy: 6.692278904818 xtb: 6.6.1 (8d0f1dd)
C            3.23074490515323        1.20265709330126        0.08441863775478
N            2.36674684711043        0.06280460639901        0.02744773164687
C            2.71132930036354       -1.32393244362461        0.03782757397684
N            1.45295620928703       -1.94146685116179        0.00672901054029
C            0.42926159541341       -1.05182236242663       -0.00842852322414
C            0.96066051112373        0.22699302594346        0.01038079035971
C            0.12054020993840        1.38983541558285       -0.00655295277607
O            0.45440743599102        2.57655675018952       -0.00420287734216
N           -1.27979244993524        1.06185543537820       -0.03177538568663
C           -2.25888267862343        2.14843244833393       -0.04705527220835
C           -1.82034437252847       -0.18426819633250       -0.05008109071600
O           -3.01902496499474       -0.38249499628307       -0.07544374984739
N           -0.92356378791920       -1.27430766175193       -0.03832647429473
C           -1.48457101971258       -2.60546164262420       -0.06235756200166
H            3.70020514548704        1.29152259464916        1.06809992629231
H            4.00240023235765        1.12672479389350       -0.68124073239034
H            2.63285711942443        2.10076648876494       -0.09098713781774
H            3.75386145927838       -1.95428819845810        0.05319105297264
H           -1.72641105212907        3.09598677694694       -0.02157987319522
H           -2.87607786882062        2.09107810747448       -0.94632516894415
H           -2.92498461110543        2.06989648417361        0.81482147053820
H           -1.19115562803409       -3.15996313294535        0.83048925426344
H           -1.16533132994382       -3.13917045232096       -0.95921871759024
H           -2.57053389911906       -2.50084725719467       -0.07721088553245
H            1.33691735987368       -2.93805822373506       -0.00558514863051
