  72
        -99.41036817
 N         -0.4552166951        2.2160123750        1.9666704486
 C         -1.7076022708        2.1635576901        1.8870255474
 C         -2.4251902994        1.9791516534        0.5764228301
 C         -3.1768113562        0.6588315430        0.5636769171
 C         -4.0246134627        0.3591107806       -0.5056958234
 C         -4.7146801925       -0.8391461536       -0.5707459859
 O         -5.5490373640       -1.2057650102       -1.5657989579
 C         -5.8132449213       -0.3013799253       -2.6123386317
 C         -4.5585019275       -1.7937634563        0.4706352502
 O         -5.2706712530       -2.9300259755        0.3274086867
 C         -5.2308949838       -3.8977311892        1.3497790024
 C         -3.7040146685       -1.4980842766        1.5202461416
 C         -3.0195864567       -0.2892277088        1.5620114877
 C         -1.4480205605        2.0434971103       -0.6270834823
 C         -0.8154538838        0.7209845843       -1.0680599310
 C          0.2594181980        0.2291439786       -0.0905220885
 N          0.6747711072       -1.1249460905       -0.3838464202
 C          1.6015319791       -1.4328371949       -1.2650095374
 C          2.4193417605       -0.4614668894       -2.0284744628
 C          3.7039806573       -0.1833762063       -1.2643997648
 C          3.9403384484        1.0536378661       -0.6924718595
 C          5.1264383931        1.3024725545       -0.0158441328
 C          6.0906298779        0.3143508268        0.1123888983
 O          7.2757560912        0.4486598665        0.7355481770
 C          7.6275408347        1.6992370359        1.2816771840
 C          5.8460062832       -0.9656129113       -0.4589790064
 O          6.8302931289       -1.8695104806       -0.2868036134
 C          6.6869064332       -3.1567662359       -0.8388597273
 C          4.6592572579       -1.1900945562       -1.1368516692
 C         -0.0182361264       -2.1459850553        0.3576338847
 C         -3.4482037732        3.1585255688        0.4660997569
 C         -4.5726524486        3.0692311149        1.4990207296
 C         -2.7579552836        4.5174615851        0.5716097833
 H         -4.1458526301        1.0784296354       -1.2979504744
 H         -6.2548318411        0.6272930854       -2.2385806675
 H         -6.5290000998       -0.8051771080       -3.2589437267
 H         -4.9083486044       -0.0731035314       -3.1849005574
 H         -5.5845469487       -3.4898344657        2.3013553217
 H         -5.9012653183       -4.6915571103        1.0262273455
 H         -4.2232140609       -4.3057793615        1.4790886281
 H         -3.5664535442       -2.2024120035        2.3247777652
 H         -2.3636607257       -0.1001997956        2.3980051579
 H         -1.9932109730        2.4417095820       -1.4837428673
 H         -0.6515219810        2.7418365935       -0.3743042239
 H         -1.5854050969       -0.0452361919       -1.1726730494
 H         -0.3716903385        0.8705025195       -2.0553421555
 H         -2.3770923124        2.2677877211        2.7468633388
 H          1.1205275437        0.8962333232       -0.1127009207
 H          1.8364095398       -2.4814237263       -1.3728353054
 H         -0.1515081196        0.2459749420        0.9160781267
 H          1.8907890845        0.4742144851       -2.1974532345
 H          2.6744152460       -0.8986369097       -2.9963546205
 H          3.2201306300        1.8517790392       -0.7900344090
 H          5.2914011518        2.2814563417        0.4030060633
 H          6.9393575401        1.9970262877        2.0785616217
 H          7.6564033108        2.4773194418        0.5130197524
 H          8.6243608389        1.5658235657        1.6974000741
 H          7.5986345918       -3.6900538740       -0.5773575955
 H          5.8262726883       -3.6822642411       -0.4125148107
 H          6.5907218024       -3.1180798060       -1.9282659654
 H          4.4734584849       -2.1489872031       -1.5935222384
 H          0.1913036739       -3.1337896077       -0.0460425734
 H         -1.0937977038       -1.9637384875        0.3196483476
 H          0.2941908127       -2.1195624191        1.4045952080
 H         -3.9081954427        3.0922508034       -0.5244946781
 H         -4.2263419531        3.3415120669        2.4926682863
 H         -4.9961216779        2.0684318696        1.5392091741
 H         -5.3651684471        3.7630583798        1.2293036253
 H         -2.2277015611        4.6140651826        1.5162299595
 H         -2.0482391152        4.6698728051       -0.2363711673
 H         -3.5029323559        5.3077503070        0.5200901801
 H         -0.0687213024        2.3805361714        2.8921162900
