25
 energy: 132.043467637994 xtb: 6.6.1 (8d0f1dd)
C            3.40330210170014        1.31315947255535        0.11848345098345
N            2.46634710078750        0.22201378296950        0.07540596033311
C            2.76581809655674       -1.07407903702369        0.11377011083504
N            1.65963005506264       -1.82446769082823        0.05359448066786
C            0.57014993657067       -0.97782477143045       -0.01897070683277
C            1.08275272466712        0.32932853907218       -0.00275629653831
C            0.23959794414576        1.46468926399073       -0.04186153601931
O            0.61964827723829        2.64260064496432       -0.04924271331382
N           -1.11856749172025        1.06426552674780       -0.06881165069160
C           -2.05655278232435        2.18567782230733       -0.10377912168017
C           -1.64130990617016       -0.16445558940281       -0.08750893581056
O           -3.88554698761029       -2.73935753174023       -0.00941762873739
N           -0.75667308233636       -1.26432063334005       -0.08823457716921
C           -1.20261726001619       -2.53057127731795       -0.18926877480973
H            3.91021766519124        1.34107376011543        1.08232947182367
H            4.15276705618380        1.19875670438442       -0.66417059011305
H            2.84674749699419        2.24008920256767       -0.03486571661954
H            3.76001322719929       -1.46689190517128        0.18092058095829
H           -1.47046621690499        3.09999369664571       -0.04732060114890
H           -2.62362811601500        2.17112555286170       -1.03817977282256
H           -2.74877198566093        2.15107613304016        0.73888373859825
H           -0.52663705883639       -3.36688856691606       -0.25239273948066
H           -2.26850542829001       -2.69592157863586       -0.05629130150856
H           -4.81834503313644       -2.77908669876410        0.09098905656467
H            1.62806559060485       -2.83530190835271        0.08942359763955
