25
 energy: 24.480618657002 xtb: 6.6.1 (8d0f1dd)
C            3.29196932469731        1.23131735563855        0.10872843516907
N            2.35068062478609        0.14784893728092        0.03976912305150
C            2.69448099569050       -1.19453733544493        0.06893761115851
N            1.52663723911602       -1.91262686116648        0.04569204330463
C            0.43344947337843       -1.11897207494168        0.01234263653666
C            0.94107106378163        0.19991907428987        0.00695018733324
C            0.09043606534454        1.30265852772861       -0.06067129637780
O            0.40367376911880        2.49479543413714       -0.08056560185342
N           -1.34999408177299        0.91325315736941       -0.06209156825248
C           -2.18523213758850        2.10906359750393       -0.09647696363574
C           -1.87363018791771       -0.36718132144291       -0.00400658955180
O           -3.02997611310800       -0.77049471472454        0.00946812595039
N           -0.94194400222307       -1.41946845767622        0.04052976309938
C           -1.73427218044524       -2.70922852973811        0.00648899694146
H            3.80275608242289        1.26886245117513        1.08127738559732
H            4.06473789551688        1.12489922430115       -0.66286822410893
H            2.76981555915069        2.17603672755909       -0.03659810281055
H            3.67973882594372       -1.60747970964788        0.11776478258744
H           -1.53442605983943        2.99005248501759       -0.04757560062936
H           -2.75024463749727        2.16698309467940       -1.02450317367304
H           -2.84507138595925        2.14635399030732        0.76462400711643
H           -1.00996944006449       -3.44133698768511        0.35783678863757
H           -1.90095549476047       -2.95941957316101       -1.05259513457316
H           -2.85314295440316       -2.76216255074491        0.53208029105830
H            1.52243468651048       -2.91378031123006        0.05082520818987
