25
 energy: 129.899296951689 xtb: 6.6.1 (8d0f1dd)
C            3.42032247993161        1.30313050442674        0.12654570288425
N            2.48344950305536        0.21228114455823        0.07274432150577
C            2.77680874580634       -1.08748873243850        0.10619698945449
N            1.65791956317536       -1.81945353839389        0.04162301373380
C            0.58179775222808       -0.96211649449303       -0.02179485744968
C            1.10300016136130        0.33979563086265       -0.00191820772381
C            0.26599791930759        1.48712986805159       -0.04394137739461
O            0.65272541528646        2.66230824962238       -0.04971303915955
N           -1.09065726260992        1.09641829249731       -0.07493724905323
C           -2.04352354940612        2.20704793861973       -0.10432683860716
C           -1.61202285519406       -0.12777762107261       -0.09126388207340
O           -3.98427101347844       -2.90494779545918       -0.01171067026427
N           -0.74419394838967       -1.23352559637864       -0.08808206134760
C           -1.20221201199312       -2.49577106819572       -0.17301702162543
H            3.92525757609228        1.33272433859403        1.09213324955070
H            4.17340433819076        1.20189842905745       -0.65581621696390
H            2.86307719317534        2.23004849593212       -0.01715056668749
H            3.76924016967467       -1.48820471797333        0.16601836871145
H           -1.47158512324488        3.13077005332832       -0.04612341851723
H           -2.62484312771765        2.19720226747231       -1.03224728033745
H           -2.73107993682080        2.14782700140637        0.74132562632734
H           -0.49592088064544       -3.32166689420429       -0.17562268533513
H           -2.25522190819344       -2.65854651705466       -0.03419013550544
H           -4.93855756427066       -2.82367496141407        0.09856240371703
H            1.61396016578563       -2.83010395679288        0.05875665233062
