25
 energy: 147.903616281480 xtb: 6.6.1 (8d0f1dd)
C            3.37267210105790        1.30265751471013        0.12584433364705
N            2.42517006441906        0.19786981275284        0.09005009651298
C            2.74633318667720       -1.11443245396271        0.15926746789845
N            1.62077674911664       -1.86672547926754        0.11961791619664
C            0.52546099994659       -1.04550938580616        0.03800561653823
C            1.03314726403606        0.26856565279085        0.01295030254420
C            0.12595489697846        1.36560106790945       -0.03650262856314
O            0.49252372176473        2.54722461076737       -0.09315508199189
N           -1.25438910425702        0.94467018833032       -0.04967795914944
C           -2.12012315475921        2.11921683459205       -0.13881934642544
C           -1.77938423062265       -0.30309633500266       -0.06338122573749
O           -3.64689670479575       -2.11601433317743        0.08459237659759
N           -0.81047433548094       -1.32963313511403       -0.08510516119422
C           -1.37920817885707       -2.50404258956012       -0.39592287190493
H            3.94045740813903        1.29808490638755        1.06185626419668
H            4.10242199370401        1.24436016371445       -0.68876320396926
H            2.85222079306474        2.25865147762065        0.04303188022784
H            3.75476725165429       -1.46582275469635        0.22460119429291
H           -1.46326055749244        2.99061034020840       -0.08549866129424
H           -2.64321394563477        2.14852904614852       -1.09857503463053
H           -2.84178744853334        2.12969137282429        0.66725689982346
H           -0.84336952328177       -3.41201252617458       -0.50388977181885
H           -2.50074192063860       -2.31542181512574       -0.57460222266455
H           -4.23974692568493       -2.96804588593044        0.29351443698199
H            1.65091555881258       -2.87430609109795        0.17502534993728
