25
 energy: 128.641019543842 xtb: 6.6.1 (8d0f1dd)
C            3.42783507138120        1.30547137326538        0.12616692583996
N            2.49541013022216        0.21068201217653        0.07219333722929
C            2.78030471324790       -1.09035102306507        0.10197964585279
N            1.65440389155311       -1.81111237767489        0.04073610597440
C            0.58634417954167       -0.95092606961489       -0.02293989995888
C            1.11762786938322        0.34980889405731       -0.00222033542712
C            0.29204430350320        1.50627308495816       -0.04380383301646
O            0.68428584247573        2.67894370346224       -0.04718640672567
N           -1.06617561924196        1.12346526459879       -0.07783242522710
C           -2.03012803206790        2.22348316294731       -0.10188564276221
C           -1.59758461181278       -0.09858403334619       -0.09585621520939
O           -4.07283527110344       -3.03212640693590       -0.02047644638526
N           -0.74558504012261       -1.20981967290350       -0.08681154031258
C           -1.24433876949859       -2.45810198757840       -0.15203802485842
H            3.93393904082697        1.32697152881347        1.09410039436911
H            4.17544744840512        1.20469362126145       -0.66084989818233
H            2.87490542944570        2.23716839886670       -0.00790022290679
H            3.76991107582066       -1.49726027215644        0.15748987834818
H           -1.47853762224857        3.16036170359204       -0.04654249888515
H           -2.61997272593842        2.19355831976573       -1.02054480452096
H           -2.71321269438943        2.14240305788297        0.74430155320526
H           -0.56616359894040       -3.30688574740765       -0.13255115940527
H           -2.31558871344799       -2.62622196732430       -0.12584899723552
H           -5.02336857601951       -2.98702543073772        0.09303609491628
H            1.59731346039494       -2.82064952644525        0.05215639389503
