25
 energy: 145.746495146787 xtb: 6.6.1 (8d0f1dd)
C            3.36535991151587        1.30403505304156        0.13409975615311
N            2.40471445083779        0.22191197989992        0.07010487858720
C            2.74990851439833       -1.10588596149046        0.14320693616495
N            1.61147204398171       -1.87590419533096        0.12395677045831
C            0.51019861409679       -1.07966511318709        0.03377327205027
C            1.00887989038181        0.23743133253446        0.01549904484488
C            0.09801415575362        1.33171759287902       -0.03665611869813
O            0.46743819672661        2.51022780839730       -0.09213529457086
N           -1.26239149449411        0.94148158238809       -0.04040944849215
C           -2.11694925620790        2.11956212900326       -0.13163540781911
C           -1.79549724269242       -0.30042109097157       -0.03016680056556
O           -3.28199519139899       -2.03351251554985        0.22716619635001
N           -0.85803153672940       -1.34063755245264       -0.04981635395871
C           -1.59712487127823       -2.52269066187105       -0.27772225200720
H            3.91969922222781        1.31613145101342        1.08351714330722
H            4.12365442525258        1.23377698337622       -0.65880930440886
H            2.86759370020658        2.26795887888891        0.03299206545203
H            3.75102441719713       -1.47150301641059        0.18454787339301
H           -1.42768445128681        2.96414739307990       -0.05181873471603
H           -2.63939122177040        2.19486663793648       -1.08529403469384
H           -2.83038453675766        2.15309994353646        0.68509332807461
H           -1.02269799625058       -3.45622019859715       -0.24804423177897
H           -2.38391517970949       -2.48272279590153       -1.00213808958328
H           -3.85693897515649       -3.00399923049548        0.36487039372734
H            1.67923802877050       -2.87644074398242        0.12009806782960
