25
 energy: 0.207090951377 xtb: 6.6.1 (8d0f1dd)
C            3.26101840404505        1.19608704701294        0.09487301900401
N            2.32095933142104        0.12166925241495        0.03529408540447
C            2.63672139306974       -1.22161444537804        0.04492122824881
N            1.46080150309377       -1.92351095660860        0.01410561716182
C            0.41213686257044       -1.07528123576512       -0.01529836425166
C            0.92561139353040        0.22652616896170       -0.00219182698176
C            0.09446806352239        1.35429152065239       -0.02874478565474
O            0.43781649774672        2.54416159491007       -0.03691702827125
N           -1.31170906353144        0.98545168236376       -0.04405098708706
C           -2.21021193348752        2.12840930455432       -0.06857797653068
C           -1.85445319353953       -0.28100267330735       -0.04363824716542
O           -3.03589543416195       -0.58877595380492       -0.04916932076342
N           -0.94083660734303       -1.34374977455066       -0.02738698979980
C           -1.59221687044952       -2.64049938138952       -0.04540040373904
H            3.75055368398581        1.23831706500737        1.07431148449106
H            4.03347780961080        1.07145227050655       -0.66968934667309
H            2.72757041717569        2.13090003648281       -0.06979673163375
H            3.61696118240757       -1.63687101137340        0.07071928944840
H           -1.61148548649441        3.04216669749706       -0.03200487179426
H           -2.79657143664520        2.12365917440333       -0.98546921386636
H           -2.86766778786622        2.10329461165583        0.79584405662889
H           -1.08336076332729       -3.28861910764023        0.66436425464457
H           -1.45419141176267       -3.09760422826362       -1.02242371701674
H           -2.70702105863464       -2.53542362063585        0.17381068176576
H            1.42422619861316       -2.92546463299504        0.01599412789561
