  25
        -42.07908201
 C          3.2159984021        1.1574555071        0.0178083387
 N          2.2771699530        0.0665897095        0.0007808398
 C          2.5604165213       -1.2239892585       -0.0103443697
 N          1.4278779169       -1.9498827026       -0.0044820047
 C          0.3665443989       -1.0745486277        0.0084602377
 C          0.9112490013        0.2055059444        0.0124787425
 C          0.0879188273        1.3968095501        0.0161506534
 O          0.4920317816        2.5361475189        0.0220667144
 N         -1.2701865038        1.0654095427        0.0091593199
 C         -2.2227919414        2.1737629060       -0.0001205618
 C         -1.8510906453       -0.1728586805        0.0020113199
 O         -3.0321843136       -0.3574606235       -0.0128314671
 N         -0.9605594003       -1.3322306781        0.0144956549
 C         -1.5278176625       -2.5501600728        0.0431660469
 H          3.7327694046        1.1967274584        0.9777998237
 H          3.9541153985        1.0329546341       -0.7737086965
 H          2.6715920986        2.0905122508       -0.1267787328
 H          3.5492685210       -1.6437065284       -0.0243548065
 H         -1.6591097613        3.1020982655        0.0420210233
 H         -2.8216895768        2.1374295737       -0.9089473447
 H         -2.8875167155        2.0947082244        0.8584725376
 H         -0.9282252338       -3.4368770016        0.0381853624
 H         -2.9186433091       -4.6770423520       -1.6173291634
 H         -2.5981998021       -2.5933132899        0.0650538079
 H          1.3830652552       -2.9589298913       -0.0221011883
