72
 energy: -99.326184382225 gnorm: 0.009194359288 xtb: 6.6.1 (8d0f1dd)
N           -1.67303662142469        2.99936700277804        2.36110998647680
C           -1.75016402641038        2.21911066480394        1.38803967226135
C           -2.95831682316788        2.07216050067899        0.50491329263001
C           -3.43422676947408        0.62587007610472        0.52819598186190
C           -4.30059116337083        0.17413450350745       -0.41412315475640
C           -4.62374913751026       -1.27581403994339       -0.57361182547010
O           -3.70833813204847       -1.77915035454658       -1.59477539188734
C           -4.32629148348398       -2.33564846765891       -2.72808924782385
C           -4.36940076690276       -2.04260281376963        0.69654075161384
O           -4.98608883627628       -3.21840264326685        0.72873117808888
C           -4.92340588354200       -4.12377833865200        1.66035590508377
C           -3.50784434922903       -1.53130227572680        1.66462819430616
C           -3.00872045029476       -0.25078615112077        1.56383009811485
C           -2.47643498086448        2.44689357066666       -0.92408813035620
C           -1.65578253754144        1.36080380290483       -1.64616410763546
C           -0.32053508010456        1.14569063370176       -1.05359655203744
N            0.22514241211602       -0.03022441088396       -0.78901525251877
C            1.59602267917301       -0.10666900341113       -0.34214019603888
C            2.55694930631957       -0.48051106428441       -1.48836403563426
C            3.97750831133561       -0.25677280862242       -1.05057178325828
C            4.58004677832864        0.97641382382308       -1.23923487520319
C            5.87645085941922        1.20792885712307       -0.80690399719917
C            6.59632700233946        0.20805879846295       -0.16941924352791
O            7.85622344047524        0.32035691849212        0.29155700757332
C            8.54456670144886        1.53748161068573        0.11745501336025
C            5.98567609276849       -1.06071804185896        0.03136662666758
O            6.75686137744035       -1.97372525729866        0.65524117777383
C            6.25235126059809       -3.26940380694900        0.87338220993917
C            4.68773201126431       -1.26833419588618       -0.40874713391306
C           -0.46344083005146       -1.27491054928795       -1.03383482908743
C           -4.14801126086697        2.98491963348952        0.91823473359157
C           -4.65246128453544        2.64004616577396        2.31746741126798
C           -3.82134865601457        4.47382991221503        0.84031183949372
H           -4.68294995241100        0.82186402277992       -1.18566629821267
H           -4.95622347029835       -3.19048909845797       -2.46303469611427
H           -3.52245333096310       -2.67220017306701       -3.38065534880168
H           -4.93231185824782       -1.59203732398707       -3.25726066652356
H           -5.63966215629870       -1.43950846586697       -0.92724594553169
H           -5.51472405484505       -5.00172151203831        1.48420434674510
H           -4.33852484065331       -4.01145505695507        2.55561654985896
H           -3.24103670861484       -2.13069735759328        2.52194801199848
H           -2.34531862154366        0.11556760498989        2.33069808835008
H           -3.35116172875231        2.66366291654372       -1.53613244793728
H           -1.88300294452884        3.36024887089522       -0.86127595055334
H           -2.22575773440828        0.43467938414275       -1.69750809039627
H           -1.50684644251540        1.71786590152828       -2.67329032694155
H           -0.91354745263660        1.58473114409016        1.04245494451716
H            0.30585832559297        2.01386531036570       -0.90601866215747
H            1.67298058227336       -0.84723367906251        0.45802584477043
H            1.89626636711753        0.86321084180656        0.06077396808187
H            2.33481650661224        0.15347148890673       -2.34865709110511
H            2.40447224774088       -1.52080713853886       -1.77669557554370
H            4.04388629283694        1.76869232165908       -1.73955336437048
H            6.32040542439675        2.17507849761882       -0.97612315767763
H            8.04151668985469        2.36005570165447        0.63504766960783
H            8.65663209300606        1.78609169761911       -0.94215039545156
H            9.52769083047463        1.38244207230142        0.55754000677051
H            7.05567967464641       -3.81669425407505        1.36270818980624
H            5.37515545909751       -3.25370940972558        1.52827159331859
H            5.99825258339544       -3.76528905864121       -0.06852659487427
H            4.21773566947323       -2.22884916991929       -0.26680108298899
H           -0.59177934981173       -1.44857258967203       -2.10384432149927
H           -1.45248126135034       -1.27485620571503       -0.57326818324410
H            0.11630045695190       -2.09325971678846       -0.61543847509131
H           -4.95564317946319        2.77218303512008        0.20812099349979
H           -3.89540901115450        2.88180248216536        3.05665475280270
H           -4.90093198269061        1.58421656622758        2.39553999039582
H           -5.54604468805886        3.21840516447541        2.53611744240161
H           -2.98106058456217        4.70812554944805        1.48629168318049
H           -3.59300826464446        4.78662880445577       -0.17491295871077
H           -4.68120985582342        5.04546674759195        1.17924727785585
H           -0.79371329212561        3.03885135417983        2.86738179860033
