72
 energy: 56.884312249206 xtb: 6.6.1 (8d0f1dd)
N           -1.56866664394536        2.84698575424932        2.27803363137758
C           -1.56306052225065        2.16898199600924        1.22671444545718
C           -2.72691717796382        2.05514172087876        0.27962095337031
C           -3.29476479745472        0.64435873120674        0.35454382856049
C           -4.27061749918732        0.24097816353514       -0.56076424833448
C           -4.82388288653581       -1.02447716565373       -0.51790229488455
O           -5.78124071881120       -1.49006076541630       -1.36447782835345
C           -6.34982799873575       -0.60707332426519       -2.29881782346305
C           -4.38902126407551       -1.94408208966356        0.46538407905957
O           -4.98816277900897       -3.16648517560767        0.42978171704667
C           -4.66609171421139       -4.10692748729952        1.42222964942959
C           -3.42290271165178       -1.54394627154652        1.36804141452321
C           -2.88583230683372       -0.26195191262685        1.31466913604706
C           -2.14705262887722        2.30066271083877       -1.13792302770113
C           -1.24342436842486        1.17063543884631       -1.67004283869407
C            0.08465166929160        1.10819161538899       -1.01324406868632
N            0.69465799915516       -0.02525141871810       -0.59663872749298
C            2.07038136481974        0.01210703518149       -0.19036281397990
C            3.00583367469951       -0.49449794450929       -1.29952184155509
C            4.43026480695670       -0.33471339008848       -0.85456133923866
C            5.14064338112593        0.81761026215227       -1.12890916280387
C            6.44506210579701        0.94120770886964       -0.66091672877443
C            7.05535768106532       -0.07120000476247        0.09423052501712
O            8.34398308978267        0.05496981980491        0.54184607252718
C            9.07162409839806        1.21133525995079        0.21748593603569
C            6.32313336852606       -1.31168552318576        0.41698296837219
O            6.66223292677267       -2.42103979356949        1.11417213534163
C            5.91975126031943       -4.33693704464021        1.22250425276576
C            5.02506290656375       -1.33051903270507       -0.09972413831076
C            0.03796642337005       -1.30916068449951       -0.65135648410908
C           -3.87355730601557        3.06424703438135        0.57131969764132
C           -4.54126908852574        2.77371255491107        1.91424305168238
C           -3.41389898286714        4.51997448787633        0.53264514481957
H           -4.60726636655945        0.93566058605236       -1.31299861236767
H           -6.79806689410068        0.26660160896286       -1.81345828838461
H           -7.13023081085811       -1.17658095127847       -2.80094376795499
H           -5.61590339205976       -0.27382506618954       -3.04123426903518
H           -4.89073888265594       -3.72883591992964        2.42468291094000
H           -5.29275642372056       -4.97325690692360        1.21544794414865
H           -3.61292243311786       -4.40457970511948        1.37290348312722
H           -3.07953579098038       -2.21937070283219        2.13605755255379
H           -2.15354933728395        0.02136420423233        2.05596018391617
H           -2.97641855471116        2.43632646442546       -1.83390663808740
H           -1.57532832815404        3.22891952930072       -1.13007503275078
H           -1.77016012386875        0.22164409627592       -1.58669771669824
H           -1.07515895559978        1.37026873434244       -2.73953064184300
H           -0.68519040112273        1.62803861069898        0.83711660709007
H            0.68067518451376        2.00379394752426       -0.99529053887169
H            2.20246584375689       -0.60251796427393        0.70924788600041
H            2.33425475488141        1.04389578745513        0.05242936098368
H            2.82924540165668        0.09653315146862       -2.20102797286801
H            2.78089119512241       -1.54034749615858       -1.51566135759172
H            4.69130631365782        1.60875949136560       -1.71919972115315
H            6.96190183467469        1.86184035928882       -0.92409115052793
H            8.62759241455955        2.12117265495312        0.63986615129181
H            9.18949940669031        1.34587601373613       -0.86559745144477
H           10.05446180972340        1.06157387194301        0.66240397092538
H            6.74145678086043       -4.86082448706643        1.67724504001504
H            5.09558349146415       -4.23046830772190        1.88551438621169
H            5.68080188905775       -4.72988386341448        0.25854788493311
H            4.46851327855739       -2.23304557167382        0.11459101628584
H           -0.12289358367036       -1.63310656632439       -1.68583425446352
H           -0.92821215612419       -1.27248019316727       -0.13901505407476
H            0.66653781022633       -2.05056443584516       -0.15897429854285
H           -4.62366289309001        2.92607186825443       -0.21747856459075
H           -3.82833916387502        2.92118049349093        2.71651265879334
H           -4.90991857867725        1.75144032129574        1.95292617265861
H           -5.38056663065898        3.44950800186717        2.06265445218754
H           -2.64505255510053        4.68646904790070        1.27925744321629
H           -3.03012413753457        4.79700458339661       -0.44582152809781
H           -4.25703317283268        5.16966614345870        0.75612829980643
H           -0.71828486874545        2.86366647664948        2.82948332682684
