72
 energy: 63.579907020144 xtb: 6.6.1 (8d0f1dd)
N           -1.57796961193139        2.85466533874007        2.28364637244536
C           -1.56563125812171        2.17270165580950        1.23625677179348
C           -2.72473177733710        2.05426804857305        0.28369503585667
C           -3.29215532473832        0.64320293202433        0.35781666580006
C           -4.26659204640015        0.24013366253411       -0.55940557895727
C           -4.82109417899901       -1.02480167891434       -0.51647235892991
O           -5.77697785385759       -1.48985423338536       -1.36371554764775
C           -6.34478197946938       -0.60691535903967       -2.29884734299462
C           -4.38803106985337       -1.94453793161578        0.46813580107593
O           -4.98734661256733       -3.16552455614851        0.43201464949385
C           -4.66650160263467       -4.10753412674482        1.42392494106854
C           -3.42269250354038       -1.54455761757513        1.37170110567574
C           -2.88508595919471       -0.26273000689245        1.31889232739130
C           -2.14105102991577        2.30044318817867       -1.13227191234394
C           -1.24256531225230        1.16758940137824       -1.66806182694506
C            0.09308743714745        1.10134345035025       -1.02682425784079
N            0.69847664048153       -0.01863736115056       -0.60374605471716
C            2.07665961909333        0.01887523770427       -0.19436521599410
C            3.01240443549521       -0.48833371517247       -1.30312947998463
C            4.43711125551103       -0.32134323266611       -0.85735803219277
C            5.14630726793829        0.83109416006069       -1.14086161319819
C            6.45041612359829        0.96412612810400       -0.67353372706905
C            7.06326152931701       -0.03753269431376        0.08525203898569
O            8.35021799712647        0.08987410403974        0.53972796580866
C            9.07326159976386        1.24454282867839        0.20633121217817
C            6.33552873285769       -1.27539384631860        0.42142054611629
O            6.68158365459611       -2.34280588634279        1.11025253020015
C            5.87042925357329       -4.46734297100239        1.23990177008563
C            5.02946268289708       -1.30660132619577       -0.09332961817983
C            0.04749034348483       -1.30822959393816       -0.65502470345536
C           -3.87380190369285        3.06274984510209        0.57022218506415
C           -4.54612376879622        2.77345213454315        1.91115264850482
C           -3.41588837072969        4.51895828939400        0.53063808059940
H           -4.60164280835441        0.93455590021130       -1.31260107792333
H           -6.79232104449944        0.26725861873898       -1.81391235237648
H           -7.12537648248233       -1.17589008171014       -2.80113889632233
H           -5.61012408967354       -0.27477882204168       -3.04098227139254
H           -4.89190465802560       -3.73024886510098        2.42636112720213
H           -5.29304422240797       -4.97368358208222        1.21593129153098
H           -3.61336763127058       -4.40533272258529        1.37493974046189
H           -3.08085518897251       -2.21987775225194        2.14028779189143
H           -2.15428421953430        0.02052336793110        2.06157675257384
H           -2.96946662170976        2.44156835960126       -1.82843649290383
H           -1.56636438754404        3.22661824252866       -1.12205611735439
H           -1.76886863409654        0.21909335637927       -1.58116303888181
H           -1.08290027597369        1.36739409374182       -2.73885412873495
H           -0.68513719230339        1.62681075264462        0.85969148171662
H            0.68351829140339        2.00278206739971       -1.00143718501426
H            2.21019396161105       -0.59541854080296        0.70507824371272
H            2.33996980497492        1.05076119494997        0.04733233100942
H            2.83544286997208        0.09931930667948       -2.20675912648418
H            2.79221830964096       -1.53599738626358       -1.51608219937696
H            4.69837639907167        1.61666576972929       -1.73827689050009
H            6.96557652741227        1.88299996624070       -0.94213213585527
H            8.62595351701876        2.15694207322045        0.62011008451053
H            9.19007523510638        1.37043740366555       -0.87816085531059
H           10.05679633646434        1.10330725768323        0.65183014583104
H            6.71255283393301       -4.94767866247029        1.68722007294513
H            5.05630838940626       -4.31554262031844        1.89952561005009
H            5.63927094163922       -4.81507707653209        0.26298482102259
H            4.47738347105113       -2.21110140773412        0.12887972172262
H           -0.11158688597970       -1.63200791518100       -1.68914426395881
H           -0.91823182641280       -1.27554167180484       -0.14198161306202
H            0.67936335817201       -2.04718638382676       -0.16337192527520
H           -4.62086234971730        2.92234608575275       -0.22083254194221
H           -3.83678090383441        2.92316394298918        2.71618614289548
H           -4.91394365927109        1.75095411067513        1.95014468492177
H           -5.38662839191248        3.44854670054573        2.05530521098762
H           -2.65017822717128        4.68819174671206        1.27982207248362
H           -3.02916503698260        4.79478609808073       -0.44696565467916
H           -4.26057094865385        5.16783992692947        0.75009788350916
H           -0.73234422749544        2.87560758868716        2.84186549157337
