72
 energy: 11.137620445383 xtb: 6.6.1 (8d0f1dd)
N           -1.53370754823395        2.81552647297568        2.25832972423525
C           -1.55657891430512        2.15497781481796        1.19055476550077
C           -2.73594235626689        2.05774865259059        0.26299243850733
C           -3.30531246991938        0.64770741358772        0.34111140373100
C           -4.28666388176436        0.24365785106112       -0.56699075456363
C           -4.83529342644173       -1.02355621010396       -0.52355593998008
O           -5.79854737757752       -1.49127932299444       -1.36597038590166
C           -6.37044873425417       -0.60866108760059       -2.29727052609377
C           -4.39329574793135       -1.94261577119853        0.45485329167846
O           -4.99097203699686       -3.16877056303716        0.42059666532754
C           -4.66514210439735       -4.10373809060985        1.41588742287252
C           -3.42369174158508       -1.54222687552031        1.35357795865358
C           -2.88819921932581       -0.25980418895447        1.29741614353244
C           -2.17030315875230        2.30084574044825       -1.16067687079963
C           -1.25061225306404        1.17832719410828       -1.67371807198009
C            0.04416358493838        1.13106218330542       -0.94845338171170
N            0.67020880573419       -0.04353667201957       -0.56952060477975
C            2.03929429086956       -0.01248298841287       -0.17505044321658
C            2.97854415025558       -0.51818251903013       -1.28948438643840
C            4.40009006643087       -0.38485515880978       -0.84636266039195
C            5.11499996638020        0.77413349063469       -1.08479603338339
C            6.42027826675434        0.87746922714058       -0.62208746615693
C            7.02842603920695       -0.16467010491970        0.10399318222948
O            8.31769484931426       -0.07268675803714        0.54188361272509
C            9.06949714749667        1.08387118804670        0.26317823397321
C            6.29260946094051       -1.39623966286709        0.37514824850101
O            6.74239245527809       -2.58253909560432        1.05075594750910
C            6.10975047986194       -3.93269607148757        1.17303787249804
C            5.00208140269813       -1.41363937330585       -0.12418289182866
C           -0.00188121504332       -1.30991279669601       -0.63621689525132
C           -3.87247656530818        3.07046766950970        0.57576863170986
C           -4.52131052623507        2.77519064360997        1.92673074431921
C           -3.40568126283713        4.52426482199574        0.53974106776608
H           -4.63046736254700        0.93966789426705       -1.31465833243269
H           -6.82096214883019        0.26264860621312       -1.80943442128767
H           -7.14978967882774       -1.18072665934546       -2.79844916456912
H           -5.63918479440610       -0.27151153291944       -3.04042459428547
H           -4.88718441332465       -3.72237222846823        2.41820880793547
H           -5.29217275609309       -4.97089005256153        1.21387354186494
H           -3.61180209856152       -4.40106683471208        1.36559318262633
H           -3.07527362717699       -2.21800065640748        2.11949178622463
H           -2.15079827689881        0.02389268655710        2.03356879619262
H           -3.00137910269556        2.41491321809181       -1.85776087541501
H           -1.60949905773298        3.23655109996577       -1.16302021308109
H           -1.78120739565666        0.22885090809746       -1.60649592710275
H           -1.04326223694617        1.37676064732089       -2.73530951209472
H           -0.68502260278088        1.63627376689215        0.74631808758172
H            0.66695840520250        2.00370139637973       -0.97292700451405
H            2.16918910613981       -0.63317417008444        0.72029940857281
H            2.31520646523786        1.01524416610815        0.07592682303605
H            2.80247948072795        0.08345809723260       -2.18374175797870
H            2.73588389124128       -1.55746983676218       -1.51360726428473
H            4.66053587343434        1.58442006250508       -1.64563270777322
H            6.94326235187567        1.80144229934947       -0.85670512367926
H            8.63683108156928        1.98153246090868        0.71961772326307
H            9.19246015312387        1.25328989444260       -0.81310702918419
H           10.04726544880539        0.89809620451757        0.70615334566146
H            6.87120219427783       -4.56240117800747        1.65302662665787
H            5.25136861463887       -3.90752047878147        1.83697741818060
H            5.84107010090565       -4.42745073755455        0.23899375563309
H            4.43410182262163       -2.31207900990420        0.05930786345749
H           -0.16814398953433       -1.63252233817634       -1.67197506131398
H           -0.96859520542952       -1.25925051517734       -0.12584458974133
H            0.61636136572521       -2.05757265933463       -0.14077758710287
H           -4.63466914430265        2.94097322224049       -0.20323114572690
H           -3.79520987220331        2.91336022628025        2.71932624551619
H           -4.89397212720457        1.75416904464557        1.96409686197898
H           -5.35536728838635        3.45397510109914        2.09149366357767
H           -2.62442148962510        4.68347985205229        1.27558462410029
H           -3.03469724375774        4.80578684343662       -0.44254196363669
H           -4.24283448686563        5.17658732309273        0.77910974763381
H           -0.66359830324146        2.81696646584939        2.78191110410540
