72
 energy: 4.868480170020 xtb: 6.6.1 (8d0f1dd)
N           -1.52498598239163        2.80618126610906        2.25397486403705
C           -1.55558056682731        2.15396500145345        1.18123728492403
C           -2.73851658303097        2.05840961841881        0.25887761778778
C           -3.30780742283873        0.64816106565321        0.33779300167203
C           -4.29043617908571        0.24419742398100       -0.56888457793738
C           -4.83821583950838       -1.02335089373662       -0.52507977356906
O           -5.80276665117893       -1.49143472290636       -1.36590789040019
C           -6.37572648728699       -0.60908237971925       -2.29669822069309
C           -4.39440527259850       -1.94244330924958        0.45235377621851
O           -4.99136154472010       -3.16855610506968        0.41838165266760
C           -4.66482466419322       -4.10289871931658        1.41425940001264
C           -3.42373688335314       -1.54204396948120        1.34994998161613
C           -2.88843019062786       -0.25957308770099        1.29302001484115
C           -2.17601115694569        2.30100782174442       -1.16603877122074
C           -1.25376044681873        1.17895429836142       -1.67215254676794
C            0.03384443050529        1.13355311090753       -0.93305091937620
N            0.66140308093672       -0.04382995103353       -0.56622565766865
C            2.03148234365853       -0.01725239045631       -0.17186676755369
C            2.96965388607617       -0.52287491411641       -1.28749350987966
C            4.39198765976554       -0.39464781647056       -0.84538910238433
C            5.10656601614670        0.76607943866844       -1.07640935624475
C            6.41243285561177        0.87021082932671       -0.61735176224491
C            7.02038841831410       -0.17449023076206        0.09689356460066
O            8.30942556923015       -0.10095226206271        0.53908633723023
C            9.06955256971586        1.05266690082818        0.27459467533024
C            6.28732391982797       -1.39745502150942        0.35941118193788
O            6.78665873932468       -2.54338375668853        1.02843978362499
C            6.15250685580065       -3.86678887076609        1.16801519933554
C            4.99455598621039       -1.42916084170252       -0.13200800263715
C           -0.01233816519647       -1.30878943650642       -0.63272214762960
C           -3.87220123267154        3.07212682616512        0.57714233286813
C           -4.51605599922381        2.77532836544497        1.93009365538901
C           -3.40346755926717        4.52536391439268        0.54161728035653
H           -4.63631676701742        0.94065702674229       -1.31513120749619
H           -6.82679265559627        0.26152351703876       -1.80817111380795
H           -7.15470028084630       -1.18194177950056       -2.79750299770027
H           -5.64513130112931       -0.27110201886935       -3.04003160128798
H           -4.88623533000558       -3.72086486548628        2.41651725991656
H           -5.29196397234364       -4.97017845846844        1.21328366794701
H           -3.61150483784070       -4.40015769074288        1.36354850146227
H           -3.07441108934152       -2.21777035865016        2.11545752694307
H           -2.15004548517015        0.02408768669767        2.02813956804837
H           -3.00690065162408        2.40921385774211       -1.86392787280908
H           -1.61798204024927        3.23851061290019       -1.17134200851004
H           -1.78553877894670        0.22986869343453       -1.61038357805771
H           -1.03487504159745        1.37720472375946       -2.73111013540539
H           -0.68508561607006        1.63980254196715        0.72387197944779
H            0.66197663482565        2.00251235520147       -0.96616742124678
H            2.15948035674390       -0.64031835448575        0.72170754099090
H            2.31188071172926        1.00851784935157        0.08236070445345
H            2.79524099465597        0.08034655688730       -2.18080379419437
H            2.72478384229600       -1.56125981794874       -1.51312866745565
H            4.65169075480477        1.58083275445398       -1.62879285199323
H            6.93827336755006        1.79325918866972       -0.84211995292720
H            8.63972533229452        1.94717949362848        0.73941130872435
H            9.19475916812457        1.23109151139592       -0.79971196842212
H           10.04530845025842        0.85690201153739        0.71759012307045
H            6.90770811613061       -4.49855560698120        1.65248317797756
H            5.28985904152455       -3.82824230465154        1.82903735278225
H            5.87850349742190       -4.35990243608626        0.23366835121299
H            4.42776387844529       -2.32932488095908        0.04597819202147
H           -0.17954201838925       -1.63074076702048       -1.66831296098030
H           -0.97861066759119       -1.25581560010458       -0.12214459037825
H            0.60455776174476       -2.05693479492211       -0.13689893772620
H           -4.63723274184569        2.94465388914919       -0.19925768719070
H           -3.78717690313508        2.91112692146872        2.72083731704023
H           -4.88988146838713        1.75474683203814        1.96696529888410
H           -5.34870508467236        3.45479875766059        2.09869992605708
H           -2.61931571182459        4.68369855593040        1.27481314983710
H           -3.03595439639233        4.80817473165473       -0.44162581709745
H           -4.23914039481038        5.17805290605593        0.78498046383481
H           -0.64979574794310        2.80621171352475        2.77046765796539
