72
 energy: 67.953423188713 xtb: 6.6.1 (8d0f1dd)
N           -1.58754122275397        2.86300536259356        2.28932214216750
C           -1.56819468952777        2.17565218877285        1.24606368822637
C           -2.72237321330193        2.05323484213138        0.28776196008098
C           -3.28942027578967        0.64201017157229        0.36100446835612
C           -4.26246450323629        0.23920614736590       -0.55800948060498
C           -4.81808482322110       -1.02518647500615       -0.51499629762078
O           -5.77285509286796       -1.48980251450712       -1.36297097261396
C           -6.33960982865351       -0.60680861421120       -2.29879452327076
C           -4.38692136410647       -1.94489366320551        0.47080835205130
O           -4.98658725349176       -3.16478231287844        0.43403395469812
C           -4.66693793732112       -4.10805919477950        1.42551854728679
C           -3.42248171186233       -1.54521896051759        1.37536300205070
C           -2.88429720728676       -0.26361389915757        1.32307578780209
C           -2.13534272502471        2.30003368004922       -1.12681936857042
C           -1.24202532788688        1.16451363232352       -1.66649649288001
C            0.09980787082962        1.09668973790970       -1.03882921386031
N            0.70194450453474       -0.01320148694751       -0.60744602449215
C            2.08217685423099        0.02540676354448       -0.19839755968785
C            3.01882678260498       -0.48222466199404       -1.30712333263296
C            4.44288944712662       -0.30893557703635       -0.86028319924171
C            5.15093587302538        0.84454196993871       -1.15278107815165
C            6.45497224887961        0.98641569141412       -0.68844079926777
C            7.07221654142532       -0.00501510853297        0.07413828699327
O            8.35537513380437        0.12450650768127        0.53513962122417
C            9.07574688833303        1.27770856199691        0.19508045461720
C            6.34692188059875       -1.23882164467710        0.42462076078497
O            6.70155953762269       -2.27371146954982        1.11127020345894
C            5.82487093286143       -4.59098950178610        1.25668345516990
C            5.03363794939686       -1.28344092459550       -0.08727483121472
C            0.05694634873030       -1.30718341134697       -0.65804546828177
C           -3.87379633228549        3.06108898352644        0.56911112354304
C           -4.55083790865469        2.77317753921740        1.90800928185944
C           -3.41768910530247        4.51785802207313        0.52859594857376
H           -4.59582486003525        0.93332250106879       -1.31225457222521
H           -6.78638200179320        0.26789005285330       -1.81422619398119
H           -7.12045212735799       -1.17516460897988       -2.80131472472822
H           -5.60418868784686       -0.27575789077476       -3.04059401578377
H           -4.89319047548153       -3.73148318762063        2.42794738323997
H           -5.29355074187502       -4.97396266712661        1.21632946814092
H           -3.61378952983286       -4.40592090599030        1.37701917058593
H           -3.08221514757417       -2.22050567938843        2.14451256725766
H           -2.15488843684163        0.01963598468828        2.06704129236503
H           -2.96277691374246        2.44674436745224       -1.82310767885968
H           -1.55724524835606        3.22388673581606       -1.11429550768374
H           -1.76783132360703        0.21634844229970       -1.57574441622835
H           -1.09168656178846        1.36415416654234       -2.73863110978251
H           -0.68519762442757        1.62518769450771        0.88257847826006
H            0.68607613951765        2.00246932465630       -1.00825093073494
H            2.21830126127567       -0.58877068599782        0.70072849125306
H            2.34519663573537        1.05741865691407        0.04246518958596
H            2.84100614828312        0.10231397159936       -2.21251524589260
H            2.80278628641056       -1.53149734194263       -1.51695933606732
H            4.70268041144906        1.62472355109492       -1.75608650418420
H            6.96985117326099        1.90369887780975       -0.96004075730682
H            8.62550420233773        2.19217949363620        0.60099704694489
H            9.19312075746740        1.39569559883900       -0.89022002055439
H           10.05920320936077        1.14355932105653        0.64208440829492
H            6.68424685515722       -5.03454082421254        1.69691750199922
H            5.01965272473076       -4.40080104260437        1.91273518122596
H            5.60087204101725       -4.89760798231387        0.26851435719134
H            4.48674368656226       -2.19008097440844        0.14193717250657
H           -0.10040460317378       -1.63068399472186       -1.69217350813702
H           -0.90836015108013       -1.27868800020512       -0.14434179547947
H            0.69217241811927       -2.04363623478648       -0.16723263432349
H           -4.61790151734438        2.91861436485116       -0.22417696844494
H           -3.84497810506648        2.92511013981694        2.71571321477781
H           -4.91781342931831        1.75043002670882        1.94727959166045
H           -5.39253733748846        3.44760027787632        2.04788857390710
H           -2.65503965224809        4.68981237237292        1.28025501080123
H           -3.02795802285039        4.79242689327933       -0.44813975341429
H           -4.26392400662008        5.16596980825289        0.74403018594565
H           -0.74628388964682        2.88724852184653        2.85398225008909
