72
 energy: 71.601083616254 xtb: 6.6.1 (8d0f1dd)
N           -1.63686733982398        2.90181900976352        2.31762172008693
C           -1.58437932762426        2.18927429414562        1.29216829372050
C           -2.71162548556123        2.04789376700858        0.30591898158380
C           -3.27603219495890        0.63522233516741        0.37552009729016
C           -4.24238280585992        0.23406849874494       -0.55176332589277
C           -4.80382080091025       -1.02737631710718       -0.50814924616467
O           -5.75704583054944       -1.48948568949020       -1.35865267123026
C           -6.31471185782232       -0.60592187546877       -2.29897645889912
C           -4.38192024579489       -1.94736253974939        0.48183140349526
O           -4.98365912717921       -3.16295407417734        0.44014869297658
C           -4.66984639299494       -4.10959482858127        1.43209713235802
C           -3.42241756213730       -1.54866972085584        1.39254368591835
C           -2.88081880039811       -0.26828386682607        1.34340236242668
C           -2.10829057258657        2.29844769494721       -1.10156492987565
C           -1.24272151432587        1.14987175162669       -1.65555286755247
C            0.11294535002243        1.08984770555499       -1.07001831403001
N            0.71358439731841        0.00358555660918       -0.58516933166060
C            2.10912433897256        0.05616930168968       -0.20940912406203
C            3.04484432090760       -0.45283691061264       -1.31930571699829
C            4.46495566925694       -0.25153904937316       -0.86853761033819
C            5.15713991485026        0.90888558320350       -1.20299535433346
C            6.45690750267460        1.09524862867289       -0.74989492912558
C            7.09672201806296        0.15029821453860        0.03516465888302
O            8.36305623322514        0.29765628281585        0.51073629582549
C            9.08061424742561        1.44193896596461        0.13475895439287
C            6.40153670385571       -1.08591470401687        0.42144434944423
O            6.84660454684722       -1.99803978705496        1.14121051847102
C            5.63396923779501       -5.13812973689602        1.33197984104918
C            5.06637557009161       -1.19206550479573       -0.07692090782804
C            0.10263679831193       -1.30277611178615       -0.66725914204040
C           -3.87320494222556        3.05310644814151        0.56297029010987
C           -4.57391704824462        2.77174992650230        1.89112361285579
C           -3.42594796363151        4.51272887163805        0.51773191599774
H           -4.56671075191647        0.92733827719041       -1.31069342524696
H           -6.75746236542906        0.27172894041600       -1.81672413835823
H           -7.09675922467476       -1.17163889026793       -2.80199773423495
H           -5.57515038388139       -0.28120693985013       -3.03925451576030
H           -4.90178301200778       -3.73561578517168        2.43434380206923
H           -5.29607825785358       -4.97353435247410        1.21576761734848
H           -3.61670646819888       -4.40711470585839        1.38781394933362
H           -3.08929755707074       -2.22282562871858        2.16526276475156
H           -2.15807932542937        0.01417351738111        2.09362716736195
H           -2.92883953814752        2.46720616679405       -1.79902671368769
H           -1.51418819898656        3.21199744168942       -1.07569429501256
H           -1.76869437670830        0.20374826985113       -1.54870051026445
H           -1.11450689216545        1.34389779525393       -2.72650670424244
H           -0.68899893992215        1.61999663842674        0.99397342166580
H            0.66686166823213        2.01269406663132       -1.01575661218068
H            2.25851285937203       -0.55274132352235        0.68746788421500
H            2.37506336307302        1.08895254909457        0.02477004803371
H            2.85909881361673        0.11116373029640       -2.23627301646936
H            2.85477956204866       -1.51167545396234       -1.51114062692672
H            4.69971931049289        1.67219608643237       -1.82041311040252
H            6.95275250388181        2.01516593275214       -1.03021250965100
H            8.61955314334035        2.36749278460373        0.50154194167888
H            9.20216049797604        1.51926020598439       -0.95256929234652
H           10.06395850329172        1.34498761493768        0.58866860952444
H            6.56075529076557       -5.43927744736200        1.74396171018018
H            4.85648944121889       -4.83205166015275        1.97427030262552
H            5.43272673607615       -5.28306293471289        0.30373359411377
H            4.53614770189461       -2.09597716241471        0.19292702092509
H           -0.04599386110969       -1.61416163908259       -1.70349924659597
H           -0.86152851821512       -1.29752836726067       -0.15497859059182
H            0.75307246920448       -2.02829820876337       -0.18484291917297
H           -4.60280666646886        2.90082015799026       -0.24093620767296
H           -3.88632537965028        2.93525178031262        2.71274319894550
H           -4.93684246301422        1.74776132249124        1.93198339313760
H           -5.42165003658400        3.44225153530067        2.00893886645793
H           -2.67919115867769        4.69924198481437        1.28183533105443
H           -3.02098603368144        4.78139247005804       -0.45431431457678
H           -4.27995056599710        5.15656740278729        0.71272951394837
H           -0.81063866982711        2.94094888351042        2.90745011324157
