72
 energy: 72.057455966693 xtb: 6.6.1 (8d0f1dd)
N           -1.62762011639712        2.89431988642032        2.31362536269447
C           -1.58001204372371        2.18806971963582        1.28400871514537
C           -2.71368429724075        2.04971555225011        0.30335866924452
C           -3.27856128031406        0.63737234824768        0.37349758631804
C           -4.24603962340983        0.23576171810309       -0.55247656746007
C           -4.80592011230605       -1.02623888870520       -0.50887927015846
O           -5.75803301555982       -1.48889912433077       -1.35921357690463
C           -6.31926555527118       -0.60601797179343       -2.29865857302590
C           -4.38262354173852       -1.94613744284651        0.48050516241857
O           -4.98384872049109       -3.16189396760219        0.43970171036581
C           -4.66958205516778       -4.10895922659410        1.43097060149171
C           -3.42185329489458       -1.54767775225740        1.38943630266107
C           -2.88119607739210       -0.26702471088739        1.33946632262125
C           -2.11383884755117        2.29878651163247       -1.10561887634873
C           -1.24208794043518        1.15239398661468       -1.65732174798321
C            0.11665041710260        1.08692439651277       -1.07901875336690
N            0.71025484362351        0.00164613330761       -0.58931766649629
C            2.10372261390238        0.05081433597891       -0.20971543686424
C            3.04235349655987       -0.45941825478498       -1.31786770661748
C            4.46258667319293       -0.26301401526877       -0.86665704554647
C            5.16131113820606        0.89473338246432       -1.19594546929892
C            6.46036211141602        1.07439681132270       -0.73846188093993
C            7.09523530441196        0.12169573980670        0.04324455184669
O            8.36316734358823        0.26319123140174        0.51644046312947
C            9.08007289853697        1.40926935946526        0.14672510848517
C            6.39061374814278       -1.11307896964022        0.42281758757680
O            6.81449662678785       -2.04974819122496        1.12556888739377
C            5.66555631244385       -5.03893157289190        1.31809912631132
C            5.05613635746425       -1.20623497459447       -0.07205838189550
C            0.09354237014821       -1.30420684040009       -0.66640232965378
C           -3.87382016199836        3.05466881135055        0.56405336467204
C           -4.56927871700800        2.77173217493921        1.89463151192014
C           -3.42429796080351        4.51370990454624        0.52005412752492
H           -4.57257230735767        0.92862385804529       -1.31088215267997
H           -6.76312557960228        0.27114354941617       -1.81632630878429
H           -7.10118936635034       -1.17224687575074       -2.80163671490417
H           -5.58089228236610       -0.27987964557373       -3.03959812380130
H           -4.89998840614991       -3.73532905319920        2.43355345410046
H           -5.29654135733210       -4.97280858330524        1.21556646489398
H           -3.61654926811316       -4.40735129315997        1.38566890487281
H           -3.08728061272498       -2.22234002993722        2.16114182266390
H           -2.15726689892037        0.01594357716798        2.08840148377991
H           -2.93649837762407        2.46398276716934       -1.80259477643619
H           -1.52315760759950        3.21450827034904       -1.08399131838586
H           -1.76568351855355        0.20529748726348       -1.55014443159855
H           -1.11820712740594        1.34656870891272       -2.73029782332386
H           -0.68726457340330        1.62374867604954        0.97009414470442
H            0.67382266243582        2.00854228624132       -1.01380297807415
H            2.25215351798989       -0.55881101935060        0.68896340184042
H            2.36793163073923        1.08378837198475        0.02461368438383
H            2.86334398658876        0.10720983014334       -2.23434391460746
H            2.84600972959634       -1.51649657023992       -1.51152339272261
H            4.71416061160578        1.66049807459951       -1.81671484234168
H            6.95896598924609        1.99382855155396       -1.01748133343558
H            8.62003112854930        2.33235006241115        0.52091498786122
H            9.19981867602719        1.49374975691322       -0.94044282315547
H           10.06327635847451        1.30520504499675        0.59934059040398
H            6.58054017788204       -5.36198413167468        1.73488852688026
H            4.88782454187084       -4.74176737008379        1.96126202846859
H            5.46521825118222       -5.20672331963211        0.29573244144711
H            4.52154700282854       -2.11064991101715        0.19195418019174
H           -0.05364528030709       -1.62046158052784       -1.70287764795636
H           -0.87189399059463       -1.29389927605986       -0.15515088646744
H            0.73995438144207       -2.03212349948258       -0.18062646823002
H           -4.60617154946274        2.90447147552447       -0.23789828788216
H           -3.87758467153667        2.93289281432422        2.71305372815487
H           -4.93248476157159        1.74779879616711        1.93504329257450
H           -5.41586778323197        3.44288709010648        2.01728074531990
H           -2.67438921036737        4.69664516749937        1.28180565287950
H           -3.02187665067172        4.78339908824548       -0.45278378428987
H           -4.27642252797390        5.15888481987049        0.71907221224247
H           -0.80066569107882        2.93131019366870        2.90104390909448
