72
 energy: 0.041945136202 xtb: 6.6.1 (8d0f1dd)
N           -1.51624125341414        2.79713666989358        2.24947066262535
C           -1.55461654509018        2.15314692854044        1.17209485069419
C           -2.74097446968825        2.05889702617798        0.25487968362220
C           -3.31012931482146        0.64833237554808        0.33450391912398
C           -4.29396438052281        0.24459428471792       -0.57088896697906
C           -4.84101167884884       -1.02323036772291       -0.52658494947619
O           -5.80700830127087       -1.49147686507350       -1.36562379727753
C           -6.38087824306349       -0.60936845562412       -2.29600138167564
C           -4.39541458391666       -1.94242595167015        0.44987979291277
O           -4.99164407079546       -3.16839446246293        0.41622324410216
C           -4.66453116485102       -4.10214790575381        1.41264236230919
C           -3.42351165894955       -1.54219433635288        1.34620909275185
C           -2.88830776698999       -0.25967930676298        1.28852666448866
C           -2.18172317340281        2.30105718322753       -1.17136590543971
C           -1.25646871232268        1.17954427204842       -1.67036798286020
C            0.02400182062193        1.13555910200226       -0.91812015655985
N            0.65346027729988       -0.04376915661847       -0.56468433279295
C            2.02384023083169       -0.02156848600201       -0.16873248823728
C            2.96032240277981       -0.52731968664620       -1.28593877576860
C            4.38320131025819       -0.40419411789851       -0.84435996956397
C            5.09787801252341        0.75794212274096       -1.06790447394419
C            6.40458158944142        0.86347827136035       -0.61326964140152
C            7.01297199497943       -0.18328382228433        0.08760140438044
O            8.30067944510002       -0.12874160052837        0.53591048262614
C            9.07004681079050        1.02128598634550        0.28598872732549
C            6.28201048247892       -1.39772990679992        0.34091744111960
O            6.82923454450926       -2.50274263207311        1.00619453381743
C            6.19466320225474       -3.80192817416882        1.16438423172606
C            4.98623770824809       -1.44477412811700       -0.14017100293238
C           -0.02259267331969       -1.30722344931747       -0.62916212100616
C           -3.87174858790720        3.07367886734363        0.57861798456258
C           -4.51072694811763        2.77535333431035        1.93349350185423
C           -3.40102666485903        4.52636016638297        0.54350918234180
H           -4.64204922314970        0.94160230783781       -1.31555740352600
H           -6.83238687113483        0.26053234186175       -1.80672138321450
H           -7.15951635265998       -1.18292208334332       -2.79650558852933
H           -5.65088001203869       -0.27065072684103       -3.03948346366259
H           -4.88542361084401       -3.71936024565475        2.41476316069705
H           -5.29176721006946       -4.96955489651955        1.21265509692952
H           -3.61123299382347       -4.39933712582059        1.36156035848307
H           -3.07338949540276       -2.21789736227436        2.11129707837410
H           -2.14903099244179        0.02400007399365        2.02267331124026
H           -3.01230946423701        2.40320068795580       -1.87021688045813
H           -1.62673378571924        3.24041644586175       -1.17983733839796
H           -1.78956407402708        0.23100306341404       -1.61380385179039
H           -1.02761519330534        1.37743036560397       -2.72684593734295
H           -0.68501223702794        1.64333107789879        0.70176380564928
H            0.65749893909778        2.00090845207988       -0.95936931328807
H            2.15013614796138       -0.64709768295018        0.72294107985676
H            2.30900624780589        1.00214725359288        0.08875248262700
H            2.78737392489638        0.07683599169615       -2.17885055892272
H            2.71362904464217       -1.56499472381536       -1.51264837592639
H            4.64316135941466        1.57736667424501       -1.61149321801290
H            6.93380565369426        1.78481298385055       -0.82806634271472
H            8.64452891725863        1.91329442534241        0.75902884509133
H            9.19821738915959        1.20881912867737       -0.78605397645635
H           10.04348010410877        0.81478495958707        0.72887370305842
H            6.94464470488840       -4.43299524360187        1.65332043688491
H            5.32780861585579       -3.74863569521765        1.82181626365979
H            5.91547399663392       -4.29225357901720        0.22942473843244
H            4.41999505321598       -2.34658076974033        0.03174746873737
H           -0.19070369779979       -1.62849031124346       -1.66446476407730
H           -0.98847336926334       -1.25212535754387       -0.11831002958508
H            0.59294047957261       -2.05585614911643       -0.13295255749596
H           -4.63965218469520        2.94826982110436       -0.19510482044559
H           -3.77933567524047        2.90874302131120        2.72262524291301
H           -4.88575658453779        1.75524508535059        1.96973706836984
H           -5.34198069878210        3.45547974085074        2.10581773112475
H           -2.61416844054013        4.68411289266284        1.27416850335913
H           -3.03691271978044        4.81035825656192       -0.44068382766525
H           -4.23516975277757        5.17946321724776        0.79072892030667
H           -0.63603883310678        2.79619005955608        2.75886557733851
