72
 energy: -3.325372178671 xtb: 6.6.1 (8d0f1dd)
N           -1.50758954895202        2.78832591942923        2.24517996438522
C           -1.55335580704331        2.15211324806803        1.16359958016838
C           -2.74290796678581        2.05908818028559        0.25131378284112
C           -3.31183158030575        0.64813541737532        0.33165228049525
C           -4.29693347302157        0.24499135713926       -0.57254921382988
C           -4.84343949466525       -1.02298875824251       -0.52792983320360
O           -5.81087463333883       -1.49116778005806       -1.36523637287032
C           -6.38555200421243       -0.60958507116989       -2.29559341348083
C           -4.39613628507362       -1.94252043573497        0.44741169570726
O           -4.99170486852186       -3.16810855808431        0.41385736933588
C           -4.66458625458032       -4.10136132440758        1.41085773344216
C           -3.42294709746360       -1.54279451858526        1.34255791767386
C           -2.88775789883126       -0.26024791236111        1.28445762292577
C           -2.18701292672438        2.30101190660158       -1.17633627249371
C           -1.25889639734853        1.17976676584176       -1.66901643221671
C            0.01556646205215        1.13515350362718       -0.90656452388781
N            0.64637827273694       -0.04351571935853       -0.56318110538490
C            2.01648037372505       -0.02505345291060       -0.16510864756391
C            2.95096638942414       -0.53172123136309       -1.28389904256661
C            4.37420455924898       -0.41391676106808       -0.84269671339583
C            5.08915313922732        0.74922346037874       -1.05926440995885
C            6.39711335529539        0.85633162318481       -0.60993641283180
C            7.00636661710929       -0.19209202815627        0.07696958993371
O            8.29189784836827       -0.15632999308837        0.53220139740950
C            9.07045958698611        0.99007287700342        0.29698058704573
C            6.27676297423712       -1.39836034081143        0.32079072393988
O            6.87044586782518       -2.46218701769680        0.98233923758169
C            6.23585881317744       -3.73830841665575        1.16112297905559
C            4.97793259443471       -1.46090290641400       -0.14822914201700
C           -0.03201616467026       -1.30527874741146       -0.62543290460117
C           -3.87085947179556        3.07492555540751        0.58028606965764
C           -4.50592634873342        2.77544969466076        1.93676248962931
C           -3.39856913667473        4.52724020057340        0.54521796882821
H           -4.64735503604776        0.94287074214629       -1.31526913863418
H           -6.83789681268288        0.25959631326962       -1.80593028997707
H           -7.16360360352448       -1.18411839695564       -2.79586459573267
H           -5.65609668764241       -0.27010252289412       -3.03916758296422
H           -4.88517598065244       -3.71769296758130        2.41271898399829
H           -5.29205908187668       -4.96876343954894        1.21171040245651
H           -3.61136737489644       -4.39873988914136        1.35962628529236
H           -3.07213461927614       -2.21871142103079        2.10702149888869
H           -2.14786133231949        0.02331713834970        2.01790426474272
H           -3.01728578697548        2.39724568580873       -1.87622464856640
H           -1.63528182604537        3.24236654177563       -1.18784833939686
H           -1.79334450039791        0.23186370406839       -1.61700192101897
H           -1.02164983641582        1.37782635530792       -2.72304794716464
H           -0.68478303767156        1.64607577561588        0.68084489012517
H            0.65328257337589        1.99844716928164       -0.95313965771157
H            2.14063558074896       -0.65276641485232        0.72477798964736
H            2.30638716623495        0.99654568916167        0.09543553415074
H            2.77963998468546        0.07300170471913       -2.17671875685615
H            2.70236175015901       -1.56869570551548       -1.51190238817684
H            4.63449561750982        1.57304625745115       -1.59410971868189
H            6.92945204058994        1.77568094941815       -0.81548834404964
H            8.64916191077884        1.87954936036817        0.77828589097744
H            9.20148186503198        1.18678486952319       -0.77279664326325
H           10.04144392655576        0.77261467171509        0.73962299191201
H            6.98175827930578       -4.36647442367817        1.65485726696981
H            5.36466122372577       -3.66920880150252        1.81463090216793
H            5.95182807097726       -4.22608596433904        0.22533691992808
H            4.41228439625837       -2.36439931264027        0.01764771544322
H           -0.19961487603702       -1.62659253637003       -1.66023233896568
H           -0.99830041217321       -1.24790174654550       -0.11568418280998
H            0.58163030036036       -2.05356315299413       -0.12722176718094
H           -4.64129631231165        2.95130589491733       -0.19095786977337
H           -3.77293110343461        2.90676926097769        2.72516157942977
H           -4.88225526913114        1.75585399750709        1.97249776631228
H           -5.33601032936289        3.45614570099953        2.11174219192864
H           -2.60949645482570        4.68533883862021        1.27369990097593
H           -3.03751601852806        4.81219370912908       -0.43986876771717
H           -4.23151720218193        5.18049655569173        0.79567323297868
H           -0.62241645130455        2.78670413713395        2.74757913017040
