72
 energy: 70.230603923466 xtb: 6.6.1 (8d0f1dd)
N           -1.62094649631849        2.89093067574292        2.30939752332372
C           -1.57504284963552        2.18588456012046        1.27615101350209
C           -2.71176179649161        2.04927511452770        0.29854456972847
C           -3.27698951424297        0.63660714689440        0.36956372174530
C           -4.24550481062352        0.23399402692853       -0.55430379570894
C           -4.80533711470025       -1.02831350015706       -0.51040643098957
O           -5.76377077256070       -1.49099000467184       -1.35786363118527
C           -6.32321899144215       -0.60855920451713       -2.29760538944123
C           -4.38126643290075       -1.94740435218141        0.47803178918082
O           -4.98393423938517       -3.16492672572998        0.43794609677644
C           -4.66875105973953       -4.10921834616720        1.43069129025377
C           -3.42025838260235       -1.54881093884604        1.38792282819159
C           -2.87872699898743       -0.26835921520723        1.33564462861035
C           -2.11693910168834        2.29756054893491       -1.11327801065946
C           -1.24290813151033        1.15281999040063       -1.65733742542348
C            0.09672051441547        1.09766624796329       -1.03106278795149
N            0.71474617655251       -0.00511659131037       -0.60346604162191
C            2.09950930777959        0.05099768258312       -0.20895492368976
C            3.04667824735891       -0.44866981180274       -1.31626254332636
C            4.46791767994383       -0.23401549585508       -0.87179155543075
C            5.13702260284308        0.94287791990951       -1.20949341301894
C            6.44079645844958        1.15759082257527       -0.77546070150135
C            7.09277131648619        0.23141013363027        0.01387285732940
O            8.35957970957328        0.36758436534849        0.48789174697045
C            9.10434254305028        1.49595976488154        0.11870014961189
C            6.42510354724397       -1.00649614063326        0.42255089782310
O            6.95566400861720       -1.85642501416709        1.15818727135588
C            5.55564962608629       -5.42698403845452        1.40236339783783
C            5.09318959897464       -1.16421379880534       -0.07914911590414
C            0.09276955480559       -1.30313883720725       -0.66559948974061
C           -3.86954741844779        3.05454846037772        0.56440822887611
C           -4.56451388125517        2.77039877587283        1.89509386958748
C           -3.42140447791836        4.51398584740648        0.51995709737550
H           -4.57294990569901        0.92790565252539       -1.31081909129238
H           -6.76731259708105        0.26831754574193       -1.81487001811136
H           -7.10561794182087       -1.17652156973185       -2.79844902296507
H           -5.58579028331877       -0.28251130708010       -3.03943663048162
H           -4.89945124491762       -3.73472708349388        2.43327525111181
H           -5.29558253879848       -4.97350390723737        1.21728248663013
H           -3.61617564382913       -4.40851772979743        1.38729192668571
H           -3.08620896789305       -2.22267830872552        2.16073203774302
H           -2.15393151583592        0.01480663221523        2.08310268714695
H           -2.93836651629755        2.45375620019201       -1.81302579736541
H           -1.52520987238428        3.21402299649318       -1.09032507724062
H           -1.77249528039633        0.20669597706451       -1.55625659711647
H           -1.10244096955195        1.34321979127385       -2.73022477150050
H           -0.68293502052094        1.62221729728141        0.95688182449619
H            0.66632744585785        2.01207869316778       -0.99050717690978
H            2.24505643349792       -0.55891543264109        0.68619921361477
H            2.35910932199760        1.08257674004660        0.03670729168145
H            2.84617782625139        0.10761645711127       -2.23374973516890
H            2.86540720609832       -1.50764693390433       -1.50460243343952
H            4.64632270904198        1.68807567808470       -1.82047526403805
H            6.93124038332093        2.07610395882221       -1.06744407434926
H            8.64976946111498        2.42349770007953        0.48442900845923
H            9.22705849366600        1.56188057362017       -0.96848403307917
H           10.08300030106477        1.36813016195182        0.58197161488812
H            6.50970916866178       -5.67305680112817        1.81062241426796
H            4.77234069850440       -5.07369675977872        2.03665040188116
H            5.37878667975620       -5.51883309690957        0.35271958792220
H            4.59755715947572       -2.08656735571005        0.19099057213620
H           -0.07272032843372       -1.61759005690135       -1.69978118171888
H           -0.86970079480471       -1.29003130839537       -0.14731617455047
H            0.74065234541076       -2.02873466139428       -0.18109550759655
H           -4.60487710918592        2.90627688334944       -0.23495004620871
H           -3.87214403822712        2.93088785631965        2.71429105674376
H           -4.92838421220125        1.74658678933964        1.93543293391577
H           -5.41156905209541        3.44151600142732        2.01503132457693
H           -2.66963188180701        4.69901220610791        1.28033850075316
H           -3.02063111602586        4.78467500499280       -0.45361314581559
H           -4.27547538091428        5.15663451248028        0.71956612262686
H           -0.77688798594935        2.91141032409664        2.87672967919887
