  72
        -99.35746556
 N         -1.2973904541        2.9429037210        2.1108667776
 C         -2.3553857946        2.3114644444        1.8983955339
 C         -3.1090121412        2.0646897985        0.6069241862
 C         -3.6315132092        0.6420010054        0.5379789925
 C         -4.5514279875        0.2904831531       -0.4529342166
 C         -5.0407406347       -1.0001942353       -0.5671665362
 O         -5.9306676129       -1.4192445945       -1.4873172293
 C         -6.4671850714       -0.4972928885       -2.4065276864
 C         -4.5936255916       -2.0007722061        0.3400308587
 O         -5.1258765117       -3.2231254441        0.1623090764
 C         -4.7738364289       -4.2629532072        1.0455987641
 C         -3.6648134512       -1.6502220523        1.3073819532
 C         -3.1894276630       -0.3497948609        1.4019067681
 C         -2.3010055531        2.3850550553       -0.6709210610
 C         -1.3998717125        1.2511815205       -1.1720809539
 C         -0.2402661713        0.9204156302       -0.2300382696
 N          0.6214245851       -0.0985853633       -0.7811350092
 C          1.9928633237       -0.1107988695       -0.3310243025
 C          2.9499281325       -0.4227093512       -1.4992406290
 C          4.3775640919       -0.2960704926       -1.0587983918
 C          5.0524430210        0.9117746512       -1.1820311737
 C          6.3646172269        1.0422483096       -0.7592422544
 C          7.0353270958       -0.0352787136       -0.1939666699
 O          8.3042191873       -0.0266402441        0.2469301997
 C          9.0653815926        1.1547471657        0.1417025530
 C          6.3507614738       -1.2775466367       -0.0551917659
 O          7.0724371172       -2.2668266574        0.5011918341
 C          6.4913614838       -3.5379642057        0.6724898247
 C          5.0367852216       -1.3815890887       -0.4885537306
 C          0.0068459978       -1.3961829150       -0.9156532263
 C         -4.3399416186        3.0666620963        0.7421034135
 C         -5.1635071218        2.7159914960        1.8998428337
 C         -3.9188063364        4.5339594394        0.7651450679
 H         -4.8898436620        1.0377497914       -1.1523152794
 H         -7.0070127676        0.3079115867       -1.8987028724
 H         -7.1646072934       -1.0674430137       -3.0170487556
 H         -5.6904005230       -0.0714110050       -3.0495335647
 H         -5.0291719394       -4.0140284446        2.0797854146
 H         -5.3560907416       -5.1256307415        0.7277485286
 H         -3.7077195065       -4.5012195716        0.9789728831
 H         -3.3020788027       -2.3879600170        2.0046313787
 H         -2.4625415331       -0.1297334185        2.1680903582
 H         -3.0038185208        2.6163044719       -1.4740371589
 H         -1.6963784870        3.2801347972       -0.5092813518
 H         -2.0069829790        0.3606194551       -1.3310825189
 H         -0.9789785096        1.5468334239       -2.1351042449
 H         -0.6403504917        0.6041469437        0.7463368974
 H          0.3603220658        1.8196483641       -0.0766177281
 H          2.1482214211       -0.8472148287        0.4705862248
 H          2.2484939938        0.8728091880        0.0671224911
 H          2.7423600358        0.2820266178       -2.3047349568
 H          2.7609486053       -1.4304424420       -1.8696629568
 H          4.5540992106        1.7611691107       -1.6232643188
 H          6.8633113201        1.9903358371       -0.8774890313
 H          8.6175129129        1.9715430772        0.7155540170
 H          9.1835568141        1.4624198133       -0.9015252971
 H         10.0405924740        0.9120467759        0.5594907959
 H          7.2628333091       -4.1519963545        1.1332140759
 H          5.6203839372       -3.4943073843        1.3337200175
 H          6.2021732216       -3.9786734780       -0.2864385914
 H          4.5129752682       -2.3200415010       -0.3958078731
 H         -0.6945064335       -1.3940570903       -1.7496382344
 H         -0.5397753959       -1.6823605444       -0.0069607627
 H          0.7663185212       -2.1462979211       -1.1162617236
 H         -4.9343497147        2.8943600964       -0.1675542179
 H         -5.3662031724        3.4331366952        2.6710038673
 H         -2.8814112078        1.9502688057        2.7746969443
 H         -5.5735601373        1.7279889226        1.9949038208
 H         -3.2500058802        4.7366815947        1.5979593224
 H         -3.4266027605        4.8224590982       -0.1592877779
 H         -4.8016722976        5.1576827897        0.8805730095
 H         -0.8003448877        3.3336752398        1.3107605535
