72
 energy: -99.656204772926 xtb: 6.6.1 (8d0f1dd)
N           -2.08822771933303        3.13845933669428        2.28598231809347
C           -1.76995355310599        2.33011752377779        1.38818025703883
C           -2.81162202745043        2.09035349026465        0.31217464136535
C           -3.32583432653620        0.65728574260979        0.33154027952041
C           -4.32365145667143        0.27325549944729       -0.57450878289443
C           -4.86792950843129       -0.99625101931993       -0.55556888844969
O           -5.86974791966046       -1.44395734559345       -1.36718425448868
C           -6.50321325233907       -0.53953337326804       -2.23475535781421
C           -4.38557492953668       -1.94761025750599        0.37136340301899
O           -4.97569005083860       -3.17564054489853        0.31205932848365
C           -4.53581480671765       -4.17096750814143        1.19871426644597
C           -3.38247366013695       -1.57640052191736        1.24458982801214
C           -2.86240414467543       -0.28625678985574        1.22423426120925
C           -2.13667094925159        2.27645290256984       -1.10163460842876
C           -1.20104799626886        1.12135238548203       -1.57848886075792
C            0.10568209834191        1.05937726114862       -0.88709171951948
N            0.67143272290101       -0.07880621531141       -0.33441139777043
C            2.07552212011092       -0.06567760711273       -0.02407787445334
C            3.00466336098760       -0.43461922493303       -1.20845161878976
C            4.44306292404907       -0.38002317947755       -0.79169234531218
C            5.19005759706054        0.77413251884375       -0.94555637689643
C            6.51697281852068        0.82556315296607       -0.54149299256284
C            7.12029038274143       -0.27864123829775        0.03278658314469
O            8.41542512739056       -0.34579807781950        0.45750772333101
C            9.23550950883806        0.78103956851386        0.28930472301528
C            6.36576049159460       -1.46088167156141        0.20621858998613
O            7.04173550155753       -2.49814538145535        0.77856485299294
C            6.37411875453004       -3.71879532717318        0.96294237388793
C            5.04690180164522       -1.49412448588760       -0.20415853896184
C            0.06769121399402       -1.36920175381445       -0.54823281652731
C           -4.08076142751310        3.02948674134634        0.66081558286531
C           -4.43236214987695        3.15326042898900        2.24377037126546
C           -3.86327884974319        4.36045682316774       -0.10208889463776
H           -4.68373616774085        0.98331668577470       -1.30299479671993
H           -6.92357606697802        0.31579181743451       -1.69516912536118
H           -7.31310415999179       -1.10098079229276       -2.69975725269149
H           -5.82396018864666       -0.17938090054328       -3.01486016695987
H           -4.71479385653099       -3.89281982667894        2.24323528387584
H           -5.12276723145850       -5.05592993729702        0.95765108306897
H           -3.47227403607294       -4.39495505326612        1.06022444726129
H           -2.99925956545319       -2.27648061508439        1.96961686180680
H           -2.08367646440008       -0.02869139456035        1.92391864031275
H           -2.90407196699980        2.36714368282740       -1.87174799627569
H           -1.53764364801732        3.18892099580183       -1.11925145259332
H           -1.72409266479790        0.16710026657368       -1.51800269471115
H           -1.01811096224379        1.30991382599257       -2.65433528051455
H           -0.80496679537802        1.81049566847209        1.34494003923482
H            0.69744838168575        1.95301744068070       -0.80977729005525
H            2.25121752421551       -0.77295159872008        0.79328775108715
H            2.34570210016258        0.93293988686158        0.32745881688398
H            2.82013729210049        0.27108815741404       -2.02015094849535
H            2.75339223903733       -1.43785107193939       -1.55685357652474
H            4.74420888841725        1.64757526015240       -1.39762138493026
H            7.07408627755476        1.73756915007723       -0.68721414439724
H            8.86113687949345        1.64444537903390        0.85013807070960
H            9.33991925095349        1.05323799767509       -0.76670994235250
H           10.20918859350719        0.49318426314227        0.68325685051611
H            7.10602672744031       -4.38539338349569        1.41709955888761
H            5.51594565976935       -3.61487124392801        1.63597266730070
H            6.03942459736042       -4.14679561961171        0.01150796722907
H            4.46520343426997       -2.39543307503156       -0.08487868166444
H            0.02927665534074       -1.66265556600401       -1.60557482988603
H           -0.95059749962293       -1.36648959763517       -0.15515181541340
H            0.64205215438260       -2.11837559099792       -0.00563231830254
H           -4.95146525833698        2.55239642823478        0.21355013097041
H           -3.88092940264140        2.36555384885533        2.73832003683845
H           -5.38803877259022        2.93960456268422        2.84094432685239
H           -4.09202368664482        4.15225820092499        2.53104931034148
H           -2.88134055595275        4.79674360098183        0.06688830927679
H           -3.93128678489438        4.20325237576514       -1.18273292909834
H           -4.61049882530316        5.10169768437244        0.15478861507171
H           -1.62161008356669        3.22040228394002        3.17180802196846
