  72
        -99.35839377
 N         -3.3240564527        3.1970753420        3.0509509358
 C         -3.2391693050        2.0751985867        2.4995365290
 C         -3.3922661462        1.8795718158        1.0027505547
 C         -4.0929700855        0.5726356808        0.6960617111
 C         -3.9359724818       -0.0082739150       -0.5624157539
 C         -4.5949720257       -1.1785399019       -0.9004599895
 O         -4.5063929648       -1.8091776713       -2.0910738449
 C         -3.7735384549       -1.2114102613       -3.1316943212
 C         -5.4443287192       -1.8050921520        0.0530187471
 O         -6.0250431290       -2.9487158137       -0.3555275458
 C         -6.9027810891       -3.6244036224        0.5177591681
 C         -5.6137927631       -1.2049518612        1.2919993158
 C         -4.9504495884       -0.0279359400        1.6057123339
 C         -1.9262249373        1.8500053276        0.6915058712
 C         -1.1539275006        0.7192401003        0.7020738611
 C          0.2356026422        0.7713138324        0.5986935380
 N          1.0608713671       -0.2769080904        0.6132910188
 C          2.4889526138       -0.0999256853        0.5246256426
 C          3.0324982216       -0.3573966305       -0.8953101537
 C          4.5281933573       -0.2115923418       -0.8958252732
 C          5.1203314746        1.0242852163       -1.1068100909
 C          6.4979745654        1.1698870182       -1.0636770849
 C          7.3157634179        0.0789416666       -0.8039325808
 O          8.6579916978        0.0990345667       -0.7342900022
 C          9.3434274299        1.3153857212       -0.9269665378
 C          6.7178279102       -1.1950788092       -0.5886566026
 O          7.5841193091       -2.1978275303       -0.3508864600
 C          7.0959695647       -3.5018978270       -0.1465163700
 C          5.3374162142       -1.3144425649       -0.6341247804
 C          0.5533000469       -1.6271192245        0.6389286175
 C         -4.1649651159        3.0224410862        0.2801338299
 C         -5.5641832573        3.1744459385        0.8718403179
 C         -3.4536773435        4.3726153896        0.2976281446
 H         -3.2908153673        0.4731613587       -1.2803832482
 H         -4.1701436555       -0.2241791905       -3.3864708506
 H         -3.8848338623       -1.8764693956       -3.9859112608
 H         -2.7119615991       -1.1208739958       -2.8789383117
 H         -7.7760359258       -3.0111380281        0.7584916235
 H         -7.2230460301       -4.5132983685       -0.0222224033
 H         -6.3981181038       -3.9222973732        1.4417762100
 H         -6.2730364801       -1.6427965415        2.0234638345
 H         -5.1245306872        0.4248693146        2.5694205769
 H         -1.6581792176        2.2665531372       -1.9155809567
 H         -1.4414984479        2.8104704792        0.6114801163
 H         -1.6410866341       -0.2397472041        0.7992460173
 H         -1.6510338722        2.4475131057       -2.6761612848
 H         -2.9650659861        1.1467708440        3.0187641779
 H          0.7092760464        1.7404057548        0.5288174994
 H          2.9736164236       -0.7885086893        1.2229239921
 H          2.7447383385        0.9186116549        0.8225637511
 H          2.5833835742        0.3616042790       -1.5821615629
 H          2.7542047322       -1.3622517241       -1.2156859254
 H          4.5069312095        1.8871087840       -1.3168588608
 H          6.9290060551        2.1422721935       -1.2372046957
 H          9.0566562569        2.0593602219       -0.1778711463
 H          9.1695512212        1.7186526330       -1.9288084854
 H         10.3986794891        1.0754991466       -0.8122986640
 H          7.9760585077       -4.1205771829        0.0173060087
 H          6.4483838294       -3.5552040095        0.7342904365
 H          6.5537939711       -3.8691345854       -1.0234851724
 H          4.8772495227       -2.2772392308       -0.4758811041
 H         -0.0219808070       -1.8469196347       -0.2635448014
 H         -0.0929176100       -1.7772773607        1.5053056963
 H          1.3823315176       -2.3262263295        0.7033992735
 H         -4.2688295604        2.7020735817       -0.7637689120
 H         -5.4991619755        3.5310850300        1.8958629960
 H         -6.1040742241        2.2307140243        0.8571391142
 H         -6.1305274401        3.8986512289        0.2925273923
 H         -3.1892035843        4.6432357769        1.3153283467
 H         -2.5638941453        4.3725470752       -0.3271426008
 H         -4.1271516964        5.1303004499       -0.0947190786
 H         -3.1529388430        3.2474962978        4.0496792483
