72
 energy: 102.699297400603 xtb: 6.6.1 (8d0f1dd)
N           -1.62610443251667        3.00468723060099        2.27468818321173
C           -1.60884546512965        2.22240910645530        1.29525605570981
C           -2.73089341289489        2.08730275619809        0.31153647959585
C           -3.29203900895727        0.67412515634997        0.36432232917008
C           -4.21950427469785        0.25399361865730       -0.59345049622684
C           -4.77749988297632       -1.01034143717665       -0.54610555125564
O           -5.69588599072561       -1.49644765947528       -1.42690517948051
C           -6.23372707636165       -0.63435061905798       -2.39512205732729
C           -4.39922993508357       -1.90714595724136        0.47916159237946
O           -4.99471374068089       -3.12794281237010        0.43785053385145
C           -4.73594268519695       -4.03885078461511        1.47464771705082
C           -3.47467218787603       -1.49310217044680        1.41828243488912
C           -2.93759566194194       -0.21264451707818        1.36304507561221
C           -2.12001953323320        2.36642510449008       -1.08644671151171
C           -1.24755259296028        1.23144374877068       -1.66201554829413
C            0.07634105554385        1.05024546361650       -1.02498876846034
N            0.58633070628582       -0.11805209027534       -0.60046609383312
C            1.95670604620851       -0.19796564703740       -0.13866478983644
C            2.92334258713892       -0.70708569798683       -1.23448073607984
C            4.34542273279120       -0.75179285576615       -0.71342742024119
C            5.12880783185789        0.39097307469074       -0.81483032847822
C            6.41888922963370        0.32162093443713       -0.29839504611818
C            6.90877665466711       -0.80675027952776        0.26440163656558
O            8.72018156919282        1.13090414189066        0.38278066579346
C            9.54146996650391        2.09458650003033       -0.00735204447505
C            6.18472663179979       -1.95685001528992        0.39280465818359
O            6.69689987791231       -3.04382474017418        0.99022065581017
C            5.90554595044334       -4.18173893866658        1.05386475352990
C            4.87485046424191       -1.89515279416563       -0.11608872950240
C           -0.13237002815982       -1.36021678717067       -0.74767431940517
C           -3.89734109973932        3.08020307426945        0.58288810912242
C           -4.56056595590123        2.79570138675493        1.92888311964675
C           -3.46299974886488        4.54403440227521        0.52364138184646
H           -4.52864330656656        0.93498149405648       -1.36921143756390
H           -6.70921062029026        0.24280193532915       -1.94113314904459
H           -6.99007554395182       -1.21485825535882       -2.92263622309336
H           -5.47278710894218       -0.30664996469999       -3.11051005254480
H           -5.00871201512256       -3.63201031882924        2.45204647218480
H           -5.35311887647429       -4.91181978689047        1.26433857443640
H           -3.68245666478282       -4.34530760840261        1.49106225002520
H           -3.16593280414397       -2.15331937699953        2.21213988562406
H           -2.23853812422768        0.09123511011490        2.12629613848138
H           -2.94438906966110        2.53968861707732       -1.78871958198157
H           -1.52960971232325        3.27587339670167       -1.05030523687976
H           -1.81402678053584        0.30084394276766       -1.65614895319817
H           -1.06949292080091        1.50372331043022       -2.71065397400464
H           -0.74691954605987        1.56971120868915        1.07661926104082
H            0.72359409684944        1.89995428067169       -0.89436577337067
H            2.03139101566315       -0.86875860509702        0.72474332116187
H            2.27942056027714        0.80090783097009        0.17594284425118
H            2.87107066739860       -0.01059173410644       -2.07828893989247
H            2.59878399332863       -1.69128577172159       -1.58286208288497
H            4.75040024526199        1.29726317735698       -1.28424662826622
H            7.06664166139492        1.20504798100414       -0.33294123695552
H            9.19002995906578        3.09250056104826        0.31593180529729
H            9.73794087550190        2.14395142541431       -1.09625372386864
H           10.50434989306608        1.91804843870385        0.49045349365740
H            6.54652069911329       -4.91051511596619        1.53600538116982
H            5.00525900742816       -4.02706996162561        1.65859182239008
H            5.61441795998573       -4.53912315185937        0.05963421073907
H            4.25063664061761       -2.77646930554040       -0.05114439546151
H           -0.29676678518520       -1.61337987041833       -1.79511471844185
H           -1.09325529156110       -1.30002887688931       -0.23395404295050
H            0.44694481699668       -2.16083819681788       -0.27932857303277
H           -4.64012993531443        2.91133751016104       -0.20509567374883
H           -3.84919604120710        2.96909191433374        2.72737692181746
H           -4.91335164757931        1.76887507302456        1.98152144265724
H           -5.41056495941791        3.45866140774066        2.06907648538483
H           -2.69331919537471        4.72937627567781        1.26457756182835
H           -3.09242742840857        4.81539194056898       -0.46071962712302
H           -4.31351155946393        5.18112552182971        0.74810052741989
H           -0.78524547118697        3.00697264476924        2.84833967888487
