72
 energy: 90.028512457515 xtb: 6.6.1 (8d0f1dd)
N           -1.61526436785519        2.96719134415128        2.28967784261834
C           -1.59894265918376        2.22213190451991        1.28307500888590
C           -2.73734696272801        2.08706607941004        0.30101495779929
C           -3.30160825490792        0.67383021858782        0.35728973605571
C           -4.24376455979412        0.25435680547484       -0.58597853968768
C           -4.79826846022153       -1.01241059270540       -0.54129795050345
O           -5.72985418218894       -1.49751524081293       -1.41247809942313
C           -6.28029803382275       -0.62813805652935       -2.36703737113038
C           -4.39897574608534       -1.91490334913600        0.46858777382947
O           -4.99888922599596       -3.13784957873067        0.43322538562176
C           -4.71531306137050       -4.05597153472116        1.45641194105882
C           -3.45924840187955       -1.50523755882879        1.39378361816155
C           -2.92370742697201       -0.22376088001796        1.33784092511195
C           -2.14334831299392        2.35128834515842       -1.10984497115761
C           -1.24664372960438        1.22409845507269       -1.66715400143337
C            0.06653995136517        1.07107237480587       -1.00537997758942
N            0.60295168644051       -0.11233162255147       -0.58622129352474
C            1.97649457459950       -0.16421593468133       -0.14332839146048
C            2.94136412607824       -0.67185918205079       -1.24596598433428
C            4.36676791731173       -0.67409006476754       -0.75294789639976
C            5.10490377593614        0.48590244960526       -0.88606225710394
C            6.39633710893685        0.50203908467440       -0.39504323017651
C            7.02902210202384       -0.56041591550099        0.20929181630249
O            8.68728123843039        0.60069837005854        0.52739094662258
C            9.34527521872102        1.72190380943546        0.07545592551170
C            6.29666598211786       -1.76001871151481        0.37459147754880
O            6.80570301819421       -2.85147212312999        0.98331641153482
C            6.03040324684058       -4.01169404276295        1.08382753453315
C            4.96751583837028       -1.76940085039969       -0.12217402049234
C           -0.10766520113789       -1.35406175951500       -0.71433131316973
C           -3.89616826321157        3.08300535655443        0.58344011965509
C           -4.54532146034221        2.79135906190881        1.93355067862041
C           -3.44683464595338        4.54070612230367        0.53109158435507
H           -4.56565070728695        0.93805781852056       -1.35395349873899
H           -6.74841010833200        0.24658629774081       -1.90092789861188
H           -7.04322749365222       -1.20641760910644       -2.88725861038316
H           -5.52817617819485       -0.29539626698526       -3.08966519701112
H           -4.97153437499648       -3.65538823181430        2.44148928883840
H           -5.33467662459973       -4.92876264389318        1.25136150478460
H           -3.66082263370098       -4.35863996834412        1.45188552977242
H           -3.13801039123728       -2.17068178820580        2.17913541126819
H           -2.21144631383834        0.07403240601643        2.09118333090496
H           -2.97202956740229        2.49967983750410       -1.81344066381477
H           -1.56367693893751        3.26939508715640       -1.09349958661861
H           -1.79241544223845        0.28493623296771       -1.65702899622951
H           -1.08668883629627        1.48053003306080       -2.73242602868506
H           -0.73533378040987        1.61068627139054        0.96788808423354
H            0.74116893874396        1.90937933445384       -0.94033551904585
H            2.07643720516811       -0.82032761671760        0.73244107699424
H            2.27887827037452        0.84766030371729        0.15188075131237
H            2.84304832615518        0.00967894549901       -2.09880186641317
H            2.62218190982179       -1.66413360239508       -1.56693892335985
H            4.69971598956989        1.36986947456953       -1.36554904018887
H            6.98145272526644        1.39831411523656       -0.48846151432306
H            8.99214743321008        2.70148422289631        0.44919026441383
H            9.55037865785580        1.84066537717423       -1.00102508615342
H           10.33136198795261        1.56971822199542        0.55031063950091
H            6.69321792952387       -4.71969513011244        1.57387322380812
H            5.13338076793200       -3.87288333241090        1.69928253013024
H            5.73220186349571       -4.40681913978872        0.10528880062691
H            4.34822225883617       -2.66375570859677       -0.03133359783895
H           -0.27564219580543       -1.62755587514242       -1.75718841001093
H           -1.07038976364142       -1.28653865795233       -0.20165222961379
H            0.47720343853851       -2.13982282369887       -0.23006976706784
H           -4.64676840356363        2.92615669449933       -0.20103104321839
H           -3.82161282520381        2.95182678869906        2.72286517821590
H           -4.90331786499830        1.76573119894574        1.98082591057680
H           -5.38832571471448        3.46018472586796        2.09013166305063
H           -2.66905489259480        4.71064829135582        1.26597456780609
H           -3.07831800084946        4.81116782130038       -0.45459733993485
H           -4.28855957225103        5.18692377249837        0.76651476996475
H           -0.74327638310976        2.94712115740099        2.81202695478348
