72
 energy: 98.609895243616 xtb: 6.6.1 (8d0f1dd)
N           -1.59632052943878        2.97775038417135        2.29282083122334
C           -1.60307083439030        2.21627731222125        1.29672420908075
C           -2.72503435956364        2.09142303810914        0.31723559825115
C           -3.28234902086485        0.67570872958310        0.36941450219043
C           -4.20082031916407        0.25230311676801       -0.59683047144183
C           -4.76411751974516       -1.00955502797794       -0.55025885025320
O           -5.67153289813508       -1.49720617996190       -1.43886301420435
C           -6.19951692641700       -0.63823877252889       -2.41703155304838
C           -4.39600108524396       -1.90242390872960        0.48494984802482
O           -4.99566178115774       -3.11980349743847        0.44392074739790
C           -4.75157587872833       -4.02711871866011        1.48905397458216
C           -3.48534217860651       -1.48308262200467        1.43473021139504
C           -2.94362883161968       -0.20391824690413        1.38021772789257
C           -2.10222486924556        2.36832441203666       -1.07229135830360
C           -1.23994727505896        1.23227877451229       -1.65267495743410
C            0.07611481752934        1.04291691733776       -0.98296108020287
N            0.58344279591103       -0.13794601336543       -0.57792048380550
C            1.95979939941307       -0.22300459737749       -0.13309635964476
C            2.91699822527561       -0.71577292171947       -1.22381173261908
C            4.32735720858605       -0.78632826675043       -0.68881153035200
C            5.13135977255396        0.34519582616937       -0.77084310476345
C            6.42151716110870        0.26812164462994       -0.25753979046183
C            6.81970275859559       -0.87182272575505        0.28929125791571
O            8.81978705920273        1.40377947569031        0.35117196005093
C            9.65172774498531        2.34228254144319       -0.07128718921316
C            6.10490295750767       -2.04154754188933        0.40211586724676
O            6.61545934881486       -3.15360618388521        0.97919277225362
C            5.81645441676705       -4.28927540412253        1.02373560678478
C            4.80650223235100       -1.95860007907806       -0.11187197526650
C           -0.14452780984071       -1.37562646813049       -0.75434185962030
C           -3.89445940595030        3.08045472540927        0.58346863205600
C           -4.56954885846752        2.79980703133697        1.92574464481606
C           -3.47193576107015        4.54654151115704        0.51920747449698
H           -4.50019489593364        0.93194523164607       -1.37941978320648
H           -6.68069877855049        0.24023351313357       -1.97188790922190
H           -6.95059030950754       -1.22131348552213       -2.94845849794541
H           -5.43234089473625       -0.31482320612558       -3.12739596928271
H           -5.03675993686079       -3.61524485984281        2.45962780776256
H           -5.36739426065833       -4.89907687569934        1.27265439094714
H           -3.69928631774602       -4.33523405838468        1.51906099883949
H           -3.18814213544937       -2.13991166325395        2.23542696897988
H           -2.25674316907360        0.10269865873881        2.15297933440322
H           -2.92042203902702        2.56326632834532       -1.77457484404706
H           -1.50829398260489        3.27883958326640       -1.02078564451837
H           -1.82758528369720        0.31321092899511       -1.64613154710282
H           -1.02804917876451        1.50467881638462       -2.69119077145058
H           -0.73250670474234        1.59279491612179        0.99884409058621
H            0.69639560164561        1.92177980289618       -0.89883318703597
H            2.00428750599244       -0.90028945432146        0.72412898118949
H            2.28671672536573        0.77005301693070        0.19495161308090
H            2.88932388424152       -0.01910688326851       -2.06467532743242
H            2.59545807423039       -1.69503721124208       -1.57969725499257
H            4.77363420285758        1.25764699151037       -1.23452593380019
H            7.13279728291995        1.11257114461203       -0.25985920349608
H            9.31504605358067        3.36157681465924        0.21089016963042
H            9.86168650628798        2.35281418710529       -1.16272321610385
H           10.61321427267121        2.16150980691122        0.43703477464069
H            6.43987919916948       -5.03756829726887        1.50024441517687
H            4.91371248706724       -4.13609694268900        1.62533635659376
H            5.52814014755383       -4.63159515038212        0.02343132301694
H            4.16999628635450       -2.83130536964587       -0.06602405424704
H           -0.30522050847151       -1.59849565939493       -1.81234734055864
H           -1.11114585435439       -1.31316371330927       -0.25344897559230
H            0.43190302860628       -2.17994795547136       -0.30863628540232
H           -4.63334623563241        2.90337103500374       -0.20705856702654
H           -3.86811095783830        2.98092347721932        2.73241461202828
H           -4.92032529991428        1.77220652322868        1.98249873863743
H           -5.42446117686250        3.45914082613895        2.05376547689614
H           -2.70788231000448        4.74450611734285        1.26357275806551
H           -3.09996452341285        4.81993602603857       -0.46517638128771
H           -4.33007733110592        5.17682196046130        0.73634602232950
H           -0.76801354071627        3.02030170067261        2.87566169059225
