72
 energy: 97.522905213084 xtb: 6.6.1 (8d0f1dd)
N           -1.60157040245505        2.97046641026069        2.29218164308987
C           -1.58860866749762        2.21798491207927        1.29235099500812
C           -2.72387491370278        2.09036152676295        0.31288187126104
C           -3.28409010545349        0.67662968515566        0.36838908716100
C           -4.20203060370831        0.25189289447549       -0.59606832074788
C           -4.76134096119116       -1.01132140586487       -0.55217884519139
O           -5.66848775252622       -1.49989199176438       -1.43982587886444
C           -6.18658656851422       -0.64446250543093       -2.42721635039560
C           -4.39412667236669       -1.90380567687727        0.48257383719317
O           -4.99364032098306       -3.12300467656660        0.44233287917936
C           -4.75553175993309       -4.02786552715435        1.49149975806941
C           -3.48603397416840       -1.48130619084927        1.43499435983338
C           -2.94102001962296       -0.20306328474016        1.37842528895184
C           -2.10803134473856        2.37091502778653       -1.08380128874998
C           -1.24508684450012        1.23063814151159       -1.65326421697352
C            0.05235443148568        1.06063695664628       -0.95861566516515
N            0.58531080543671       -0.11953105504663       -0.60489052564042
C            1.94731121751386       -0.20020359657863       -0.13862747099662
C            2.90641208280033       -0.69637216135057       -1.23647950394779
C            4.31036550449423       -0.80177577509163       -0.69392308722564
C            5.15910636673024        0.29595769401793       -0.74435835430114
C            6.44618036583525        0.18037067608870       -0.21257276978519
C            6.79187854424528       -0.99890595194031        0.33358138232106
O            8.88885585366683        1.74648831733913        0.19954870480066
C            9.84474706516464        2.62989387741607       -0.11185967976093
C            6.01443814027344       -2.12997549525374        0.41411967251774
O            6.52032150639649       -3.25431849966381        0.98519225829524
C            5.73309239888324       -4.41487607557234        1.03078753830202
C            4.72738731556611       -1.99995608524768       -0.11904017113430
C           -0.13942029816766       -1.35534426012895       -0.76179769037387
C           -3.89231757574318        3.08143365661651        0.58393935577879
C           -4.56469367002351        2.79936390228206        1.92655998135667
C           -3.46711044395993        4.54692156768173        0.52134223773371
H           -4.49128078189764        0.92881415705297       -1.38345627662879
H           -6.66668037258333        0.23617356541812       -1.98810072707378
H           -6.93378239456708       -1.23329458829090       -2.95702128970350
H           -5.41433537474591       -0.32439320120907       -3.13526851687091
H           -5.04971422974578       -3.61027913674695        2.45986679062031
H           -5.37445130056622       -4.89619623266233        1.27150662125935
H           -3.70498060108735       -4.33524951780610        1.53213440966676
H           -3.19927062743180       -2.13310135967722        2.24491927205289
H           -2.25972543284659        0.10169923968865        2.15775496728718
H           -2.91644576702936        2.56407970154102       -1.78969134340914
H           -1.50165001774744        3.27577266377718       -1.02194654614970
H           -1.82095540660925        0.30670164172174       -1.65204120679518
H           -1.03344099967714        1.49016218816859       -2.69983712041642
H           -0.72222169211209        1.60249027708572        0.99110164963950
H            0.69083924829183        1.92344072779664       -0.86033753006248
H            1.98964368547319       -0.88251718289383        0.71583687774778
H            2.27470207530147        0.78542754622582        0.19795453331771
H            2.87888552615776        0.00715794891750       -2.07055124269757
H            2.56844243388006       -1.66938764774301       -1.59864867402199
H            4.83208991530772        1.22105792774147       -1.19649949123931
H            7.17295438559142        1.00356337173930       -0.22517491077626
H            9.59734416250931        3.67240454923202        0.17896578149611
H           10.11122254345225        2.62894739345367       -1.19018243369394
H           10.78475000535899        2.37184647713441        0.42472149253939
H            6.35759765024178       -5.17334338878871        1.50134344027087
H            4.82953851119428       -4.27127217738008        1.63472075118578
H            5.45071748929254       -4.75505471963923        0.02798757470558
H            4.04819579218344       -2.84132429941316       -0.09734204243730
H           -0.31233225737857       -1.58723846066690       -1.81618113286310
H           -1.10515057014717       -1.29968073789108       -0.25252969860008
H            0.43836549986492       -2.16352069684965       -0.32048351292545
H           -4.63478706832298        2.91126905490654       -0.20495002397627
H           -3.86483370172925        2.97916232985597        2.73554861067707
H           -4.91241625864239        1.77058943649939        1.98158451627474
H           -5.42057992790591        3.45803372198547        2.05224358274634
H           -2.70054783450661        4.74662372748584        1.26291103851405
H           -3.09414440342303        4.81843749939079       -0.46279836809523
H           -4.32597236806330        5.17747935774072        0.73819182854549
H           -0.75784904172478        2.98983464905023        2.86005364642446
