72
 energy: 100.087925022687 xtb: 6.6.1 (8d0f1dd)
N           -1.62191561026210        2.97776575475525        2.28081832143539
C           -1.60290020663790        2.21676502305753        1.28845869195473
C           -2.73631132017004        2.08609869725555        0.30427390756756
C           -3.29979062033777        0.67337862066264        0.35913273302798
C           -4.23773127464801        0.25417735767387       -0.58821849205943
C           -4.79333977897630       -1.01196086508376       -0.54297701308838
O           -5.72093926979246       -1.49781583988292       -1.41681389351674
C           -6.26870842191823       -0.62986347385754       -2.37426020205515
C           -4.39928049556648       -1.91214617009772        0.47148090690941
O           -4.99756528987698       -3.13477295237737        0.43450457573848
C           -4.72038252248122       -4.05154532580579        1.46104795917995
C           -3.46300002818718       -1.50215591638686        1.40004148345901
C           -2.92710528881918       -0.22110247384509        1.34419878055337
C           -2.13720023039750        2.35612969201009       -1.10354418790163
C           -1.24706609628446        1.22790868081287       -1.66758180741381
C            0.06942406247783        1.06029059046934       -1.01414101488331
N            0.59655475491704       -0.11199394945165       -0.59477628369422
C            1.96961022989515       -0.17414336583301       -0.14206706499412
C            2.93529955362458       -0.68279278018133       -1.24355722150719
C            4.35889702219742       -0.69582438968201       -0.74421421450644
C            5.10556806201031        0.45971704799252       -0.86914874199691
C            6.39726742571482        0.45971502711454       -0.37559936877928
C            6.99755877949099       -0.62883925791376        0.21510349738719
O            8.72847084082535        0.72921925400347        0.51679043087100
C            9.39237586541542        1.81654232134765        0.05448532478080
C            6.26542915819199       -1.80979444031741        0.37635774400177
O            6.77779155170545       -2.89968394576259        0.98389047474605
C            5.99953814572530       -4.05408775081767        1.07613777657929
C            4.94066888805508       -1.80269443388323       -0.12077144234761
C           -0.11465130298950       -1.35457897266255       -0.72408561527129
C           -3.89620645852034        3.08243377770753        0.58396409954940
C           -4.54929876612860        2.79251556567003        1.93267158892435
C           -3.45094451914984        4.54157110080001        0.52935339259827
H           -4.55641202784744        0.93748470257040       -1.35782826908024
H           -6.73857803109757        0.24542637197220       -1.91096513893424
H           -7.03004894493719       -1.20846584087714       -2.89640852172508
H           -5.51435222237274       -0.29824559664142       -3.09497073442678
H           -4.98075298713708       -3.64951120957204        2.44424325324268
H           -5.33907992953861       -4.92456306955374        1.25493149698813
H           -3.66611654126344       -4.35519659056453        1.46170675264479
H           -3.14507442170806       -2.16623261855725        2.18748755048467
H           -2.21818052150914        0.07865295813028        2.09999037375545
H           -2.96514230987756        2.51002982795308       -1.80655742183292
H           -1.55489666266778        3.27163238779262       -1.08201687923599
H           -1.79864862694040        0.29044596174782       -1.65922319042370
H           -1.08120853750923        1.48882228233214       -2.72568615636159
H           -0.73816834500696        1.59916414866413        0.99715575766678
H            0.73767988172034        1.90012890413552       -0.92246308814971
H            2.06541944171585       -0.83445354105949        0.73076182958050
H            2.27836132701514        0.83464968855783        0.15770256994915
H            2.85037999595735        0.00402503721488       -2.09373486768928
H            2.61508102164845       -1.67232035722811       -1.57199657124396
H            4.70962909623681        1.35106752942935       -1.34525844661505
H            6.98914337557386        1.35122434133779       -0.45840331405840
H            9.03380435320039        2.80171178939351        0.40973884762862
H            9.59430624765390        1.91535921069289       -1.02616254634927
H           10.37789421182221        1.66628539865310        0.52957585153473
H            6.65752285587064       -4.76687815504388        1.56429058102605
H            5.10177569048126       -3.91182515091580        1.68931725627047
H            5.70207005341716       -4.44007798181013        0.09394194895972
H            4.32337278672952       -2.69561344152022       -0.03554696776046
H           -0.28169643248144       -1.62496198767745       -1.76723557853753
H           -1.07603657287604       -1.28992496906473       -0.20963340304043
H            0.46923954700996       -2.14437373838832       -0.24258245439216
H           -4.64438967376153        2.92256517243508       -0.20175659121787
H           -3.82854625645126        2.95624171041509        2.72399500851531
H           -4.90589222359782        1.76659956363106        1.98100524095428
H           -5.39408711743265        3.45990186394250        2.08547659616671
H           -2.67519913817070        4.71526560438925        1.26553864882091
H           -3.08207563189251        4.81169074137552       -0.45620686769104
H           -4.29476258524607        5.18586220953439        0.76202521842483
H           -0.75714725539221        2.96426429132856        2.81643024384712
