72
 energy: 97.880547779489 xtb: 6.6.1 (8d0f1dd)
N           -1.59802979551479        2.96932050246377        2.29431666044668
C           -1.58689042498110        2.22290485902247        1.29096007366044
C           -2.72406657480913        2.09268855334581        0.31396810024981
C           -3.28116864948329        0.67698083994572        0.36956613373371
C           -4.19641360671539        0.25017438926742       -0.59678146217479
C           -4.75629394247405       -1.01257544885033       -0.55240359386806
O           -5.66055570914048       -1.50274604665077       -1.44226738145183
C           -6.17566689053270       -0.64866983796599       -2.43222854240642
C           -4.39353208574999       -1.90258579028214        0.48588645501723
O           -4.99325027870966       -3.12171097766007        0.44512379271068
C           -4.75898522237285       -4.02445820434670        1.49691267258111
C           -3.48917711903666       -1.47788457175074        1.44088230158496
C           -2.94307963167715       -0.19976549097865        1.38392374531185
C           -2.10415766624637        2.37491587058085       -1.08058642253746
C           -1.24328525872272        1.23248002137784       -1.65019015210577
C            0.05295880305614        1.05686261659713       -0.95533044866842
N            0.58172515702727       -0.12384934666678       -0.59901590695966
C            1.94612220653837       -0.20848613141889       -0.13457540670563
C            2.91009547480650       -0.69807650401107       -1.23172275017807
C            4.31724914782474       -0.80075734761125       -0.68792168069610
C            5.16859255192496        0.29648370871717       -0.72975686552578
C            6.45671101100622        0.17318395112580       -0.19300431152522
C            6.80154626461321       -1.01641815801271        0.34127666781485
O            8.95323072501129        1.74149228487861        0.19939139157747
C            9.85327682108349        2.67784472825442       -0.13612266830849
C            6.01608166539754       -2.14696783760511        0.41539153913576
O            6.50258923955920       -3.28685515087379        0.98194131563973
C            5.70372909655269       -4.44311693668938        1.02017465469373
C            4.73252716066639       -2.00501693131309       -0.12042928722241
C           -0.14343291817151       -1.35962424625517       -0.76704858504788
C           -3.89442669711799        3.08170080400635        0.58311185952957
C           -4.56823621882790        2.80023602212679        1.92518793573569
C           -3.47119907732559        4.54770316650220        0.51892272505214
H           -4.48286641581469        0.92551787258140       -1.38635222667357
H           -6.65674024799060        0.23243416126212       -1.99518850777776
H           -6.92156370087347       -1.23812451601607       -2.96310838544823
H           -5.40200868762798       -0.32916987135459       -3.13909892584877
H           -5.05677272927540       -3.60491491675325        2.46338075388740
H           -5.37721271704897       -4.89298009829391        1.27585699455588
H           -3.70854758191324       -4.33199025470635        1.54172480575033
H           -3.20442084987714       -2.12908990584416        2.25209495182565
H           -2.26444626535605        0.10479052808316        2.16561468791588
H           -2.91149450859658        2.56973096069480       -1.78601235794601
H           -1.49683032056551        3.27915025934768       -1.01558847086203
H           -1.82178224963486        0.31025895925623       -1.65146909079643
H           -1.02632303771842        1.49131435591343       -2.69556711078880
H           -0.72319979972780        1.60429827720497        0.98289584933026
H            0.69208736599513        1.91830706873895       -0.85423560245518
H            1.98552271474761       -0.89577831957928        0.71623898528226
H            2.27435068765759        0.77659485264338        0.20559923247194
H            2.88106918827839        0.00481535610224       -2.06657474207387
H            2.57268793856390       -1.67112479327007       -1.59575099801608
H            4.84180973426864        1.22314701813215       -1.18376105936861
H            7.17846126245012        1.00407526172058       -0.20152976130881
H            9.58077494542820        3.71846415145042        0.14820544452685
H           10.11361704811530        2.68823914088684       -1.21551101500816
H           10.79660843505608        2.45535334592199        0.40423268803197
H            6.31831816649338       -5.21148810825748        1.48898080989244
H            4.79754945866841       -4.30357522256285        1.62207700802998
H            5.42188715648707       -4.77989454110256        0.01630604246433
H            4.04717948837773       -2.84157524457724       -0.10312242609946
H           -0.31385806895207       -1.58234315705923       -1.82320557446125
H           -1.10940406125769       -1.30521105233801       -0.25739771035627
H            0.43301241504306       -2.17107837374585       -0.33072014207476
H           -4.63480768090001        2.90814613903022       -0.20683408457851
H           -3.86976360054925        2.98369301787600        2.73480302807715
H           -4.91285573028331        1.77045111281180        1.98143093575688
H           -5.42616789855682        3.45677953929936        2.04787764773359
H           -2.70566845206544        4.74973425567148        1.26108927929740
H           -3.09706824249793        4.81912620872832       -0.46484810952463
H           -4.33139715989989        5.17698390461385        0.73385648262089
H           -0.75663022706138        2.99986471632063        2.86411085171405
