72
 energy: 97.309078317247 xtb: 6.6.1 (8d0f1dd)
N           -1.60608460950628        2.99379077604258        2.28414207276330
C           -1.59148797973295        2.21711772093980        1.30444762122841
C           -2.72030742864425        2.08814038641279        0.32015216931482
C           -3.28196200610887        0.67631184451194        0.37281353498631
C           -4.19423343626314        0.24979031244973       -0.59578768434147
C           -4.75890584185956       -1.01023362093588       -0.55104192334936
O           -5.65712223086869       -1.50147240011799       -1.44431551532444
C           -6.17644319842165       -0.64333790838700       -2.43019694717470
C           -4.39494658551241       -1.90206454224177        0.48739662482425
O           -4.99326764357391       -3.12034100673242        0.44812811539846
C           -4.75740945015577       -4.02650584049330        1.49950750643887
C           -3.49008015948619       -1.47725168186664        1.44026116113606
C           -2.94259782276614       -0.19942355290182        1.38538655513990
C           -2.09638350071679        2.37146214628236       -1.06829535140177
C           -1.24216905824138        1.22982921318077       -1.64928023963468
C            0.07165243813202        1.04435377755605       -0.99594663855587
N            0.57635491406555       -0.13153197277736       -0.57688524976209
C            1.94996334774725       -0.21611926376080       -0.13205547728333
C            2.91918163769619       -0.71230689141776       -1.22107435343280
C            4.33610682630584       -0.78349353812591       -0.68405484432938
C            5.16145829723648        0.33632541184924       -0.74825432014906
C            6.45850202755290        0.24453325420652       -0.22930737212318
C            6.83055641300294       -0.92463340567693        0.29996247833505
O            8.87716622965873        1.48407838879670        0.24655063316404
C            9.71663332773900        2.47166104950313       -0.11034341521224
C            6.08173575713962       -2.07860476666957        0.40411235517272
O            6.58881466095524       -3.20211641668636        0.97303880608644
C            5.77093334178113       -4.34850634949206        1.01207530650339
C            4.78461602069129       -1.97338140619066       -0.11291300109118
C           -0.15034639377928       -1.36596113807201       -0.76341984479083
C           -3.89228515578785        3.08053066412476        0.58548384029759
C           -4.57148582066146        2.80099048652160        1.92536627360195
C           -3.47309172323114        4.54769588948853        0.51837824805687
H           -4.48228340469421        0.92747827770355       -1.38514100087415
H           -6.66024145691093        0.23693941191607       -1.99114449884958
H           -6.92350852771903       -1.22808431046404       -2.96507393020294
H           -5.40471992766768       -0.32165380691180       -3.13691714098134
H           -5.05381833292258       -3.60700232513383        2.46445430268786
H           -5.37660642165800       -4.89298800767592        1.27661793205915
H           -3.70702156280262       -4.33244559655849        1.53898226825143
H           -3.20233908563190       -2.13085439149754        2.24900436406860
H           -2.26869122533299        0.10665022471484        2.16949418746348
H           -2.90633120894238        2.57519325886043       -1.77088640529201
H           -1.49308589561179        3.27809220478792       -1.00315579945185
H           -1.82256429140051        0.30945235823471       -1.65325777621965
H           -1.03670204393526        1.50308190616599       -2.69160144580413
H           -0.72895215927252        1.57459725417351        1.04637814983380
H            0.70498234662460        1.90727360666200       -0.87628166243868
H            1.97567789431233       -0.89661491915133        0.71860044453883
H            2.28226072293179        0.76822756851857        0.20589811524358
H            2.89200287112672       -0.01663643131721       -2.06079938548149
H            2.58118432084250       -1.68792117415689       -1.58627959165957
H            4.80215739481321        1.24716335700574       -1.20374361272603
H            7.21030935095744        1.07465241849112       -0.22436250755762
H            9.40940889088597        3.50448725531499        0.18639818589583
H            9.94914919419604        2.49725558913941       -1.19714627346025
H           10.68061738921417        2.30437166500658        0.40978261811391
H            6.37532210345319       -5.11900223171743        1.48140078973386
H            4.86279461504742       -4.20642406879763        1.61286458959114
H            5.48065317220464       -4.69305196830062        0.01074106229312
H            4.12705086179530       -2.83225570007974       -0.07626678351166
H           -0.30990439444260       -1.57770737991831       -1.82513097649588
H           -1.12190756130165       -1.31008596808755       -0.26405619501291
H            0.42863656363699       -2.17224339266881       -0.32857925723751
H           -4.63105128995860        2.90416034446394       -0.20546552304178
H           -3.87883924996148        2.98500001898360        2.74036445956248
H           -4.91880289498525        1.77163188480100        1.98182058619332
H           -5.43051354802473        3.45786984395727        2.04328545575772
H           -2.70954340793866        4.75651993702868        1.26110883834125
H           -3.09930364728836        4.81891406687120       -0.46553736514084
H           -4.33608720954689        5.17477800639471        0.72984850176819
H           -0.78088927158009        3.02856086351930        2.87244048766859
