72
 energy: 14.381468919526 xtb: 6.6.1 (8d0f1dd)
N           -1.54769135804584        2.87228426927712        2.26818406648285
C           -1.57074674704185        2.17394269691660        1.22453136860893
C           -2.73956320577369        2.07233758099625        0.27292939413549
C           -3.30926378993959        0.66200406260838        0.34035824822881
C           -4.27525178691523        0.25027002790473       -0.57938805418845
C           -4.82435703879502       -1.01798536279623       -0.53632781102283
O           -5.77586297051604       -1.49566721814303       -1.39069096254471
C           -6.33835627309703       -0.61872075870077       -2.33168829770464
C           -4.39895198962442       -1.92952074400488        0.45417575772032
O           -5.00115897709552       -3.15461399170383        0.42259652737221
C           -4.69064720425555       -4.07861388496055        1.43204531428719
C           -3.44147855874930       -1.52372295079262        1.36326336314000
C           -2.90591390976087       -0.24191170370140        1.30561190254989
C           -2.17049514157454        2.32569070991474       -1.15010477299576
C           -1.25029241520862        1.21123787129931       -1.68610905215483
C            0.03149423830622        1.12933968361784       -0.93836885875579
N            0.62580234710358       -0.08046699810887       -0.56056358359629
C            1.99540179183478       -0.10026634058314       -0.15064099892084
C            2.95090247392891       -0.61007259361261       -1.25942991618259
C            4.37721470457889       -0.55684120113235       -0.79653822547430
C            5.09864373029348        0.61012145903777       -0.96568063419819
C            6.39441954490573        0.68387213484513       -0.49881200946962
C            7.09834002078472       -0.31961770185446        0.15531447062289
O            8.43721381898719        0.11330187531986        0.52306678913831
C            9.16921426184666        1.30348407496347        0.19451161137674
C            6.34253706032432       -1.54676213544126        0.33805940579929
O            6.90853801068826       -2.61462510839045        0.96464177076635
C            6.17851246687952       -3.80567623834022        1.11643325476049
C            5.01259057098036       -1.61736667463443       -0.13744950712040
C           -0.07593407224632       -1.33065390318729       -0.66420228490060
C           -3.88400044974096        3.07787130272150        0.58074191074740
C           -4.52032165779319        2.78360668514246        1.93744597946209
C           -3.42104516111490        4.53325028305764        0.54016020672602
H           -4.61267496688666        0.94133193363112       -1.33436955692951
H           -6.79828240672667        0.25281781591740       -1.85219538211683
H           -7.10881628519300       -1.19537890390326       -2.84201484647595
H           -5.59746566932013       -0.28112576891810       -3.06416981332272
H           -4.92724203713701       -3.68485766534530        2.42554835715084
H           -5.31396177658131       -4.94907596647946        1.23118480414839
H           -3.63599420199138       -4.37733836829336        1.40283230585454
H           -3.10457572245696       -2.19401827896816        2.13840545289875
H           -2.17896723942183        0.04998108490232        2.04757785315402
H           -3.00292704868367        2.44483097563222       -1.84993756634298
H           -1.60826742606199        3.25762268292086       -1.14824086752605
H           -1.78625893650138        0.26312861291962       -1.64095211642252
H           -1.05372322521653        1.42232909197958       -2.74966785491295
H           -0.70576590347466        1.62769599134536        0.80053604535378
H            0.70906436263316        1.96668601994210       -0.98764756568059
H            2.10350077197495       -0.74298707593735        0.73291497867068
H            2.28876478313948        0.91654019726307        0.12799217610157
H            2.80710067481347        0.03642425419223       -2.13027416875388
H            2.65558817982396       -1.62321141612082       -1.53606022865676
H            4.66097953158011        1.46407364958492       -1.46493366465461
H            6.95607346163528        1.59086127975256       -0.64125082151478
H            8.80397820256236        2.24087864942680        0.63548803036353
H            9.35658103324988        1.48202612040392       -0.87164907633825
H           10.15074144626574        1.11503533771845        0.65372341140730
H            6.87493923346555       -4.47690137067482        1.61545852933561
H            5.28819119703663       -3.68042878723780        1.74418698392425
H            5.87844734812277       -4.24148375056866        0.15634884670504
H            4.40656338907294       -2.52056837779649       -0.01806581133501
H           -0.24838698278952       -1.62708566808308       -1.70351690198080
H           -1.04243241313325       -1.26363784593590       -0.15606308657740
H            0.51794816553057       -2.10093415980233       -0.17214362129658
H           -4.65001996290818        2.94430205146873       -0.19385500932247
H           -3.78695664577630        2.92800091392081        2.72205486769186
H           -4.88883427479504        1.76136500205448        1.97963482690316
H           -5.35515768734279        3.45990547781886        2.10944366544673
H           -2.63452698068884        4.69329113099048        1.26901236586797
H           -3.05778037682306        4.81133880047186       -0.44587457328968
H           -4.25560516192276        5.18599846068928        0.78775276061280
H           -0.66742821755748        2.85059641884305        2.77284396775593
