72
 energy: 97.542909158867 xtb: 6.6.1 (8d0f1dd)
N           -1.60570222445905        2.99837286590913        2.28100915741963
C           -1.59159995285991        2.22125959982378        1.30098568788538
C           -2.72151511257342        2.09070017318134        0.31743016798098
C           -3.27972450653959        0.67616806574317        0.37082702904393
C           -4.19263521562741        0.25005711621039       -0.59786109197891
C           -4.75700073657612       -1.01053845826197       -0.55299225245796
O           -5.65484168076308       -1.50031615045086       -1.44744313253436
C           -6.17141115802333       -0.64505708685084       -2.43851413484966
C           -4.39539301529513       -1.90125426603507        0.48604723611245
O           -4.99322203987461       -3.12056049651069        0.44560209375096
C           -4.76124155262642       -4.02197340429458        1.50036157034661
C           -3.49256804061871       -1.47724776923660        1.44222901348358
C           -2.94557263992159       -0.19984555887410        1.38683168695312
C           -2.09646273278925        2.37558317570669       -1.07374631033457
C           -1.23961355743093        1.23446976944915       -1.65491347427543
C            0.06559017591707        1.05021222861554       -0.98330598832450
N            0.57295934902977       -0.12634580504605       -0.58369809468395
C            1.94375163894970       -0.21321419341698       -0.13242054684978
C            2.91229543612213       -0.71471730601507       -1.22324771340659
C            4.32588971265815       -0.80168354745365       -0.67987247901516
C            5.15697031238137        0.31015456672784       -0.74230389696598
C            6.45280463241476        0.21728867959888       -0.22164819369934
C            6.83700751223105       -0.95695345034066        0.31036294957998
O            8.90525338249186        1.58952234748174        0.24637145263174
C            9.75382845787615        2.55741749660001       -0.11687889960447
C            6.07288621761452       -2.10269858530125        0.41407229427044
O            6.56162792293955       -3.23768369301776        0.97699964479259
C            5.74302075038055       -4.38540021481624        1.00883940870358
C            4.77738441893279       -1.98659911313018       -0.10595918916374
C           -0.14968327936595       -1.36217010695635       -0.76727619670238
C           -3.89421769215121        3.08107496269006        0.58381439998200
C           -4.56964493380010        2.80036345514847        1.92487383244133
C           -3.47234848450352        4.54789799535751        0.51845781763485
H           -4.47784042240109        0.92515999307117       -1.38824212094327
H           -6.65355850686390        0.23491934812238       -2.00060828786946
H           -6.91518353661918       -1.23754552829319       -2.96837234692309
H           -5.39473007176172       -0.32817721939038       -3.14206843742309
H           -5.06116877687890       -3.60062291909689        2.46502772749676
H           -5.37897160274705       -4.89055446229105        1.27900378795855
H           -3.71074171549109       -4.32849558618612        1.54857758732070
H           -3.21052700302921       -2.12805700702941        2.25539095612410
H           -2.27397400667169        0.10323905161021        2.17436706137014
H           -2.90179616454668        2.57383111948611       -1.78009134391733
H           -1.49090982571959        3.28149239502645       -1.00427965751090
H           -1.81941988394086        0.31247240048161       -1.65364624834838
H           -1.03768493897998        1.50014830221631       -2.70213881486120
H           -0.72805608900573        1.58925699293626        1.02993384466637
H            0.70836895876407        1.90422517868748       -0.85676991162084
H            1.97155877761632       -0.89724614115106        0.71671237907309
H            2.27697536373095        0.76977005905179        0.20879361862637
H            2.89069773950292       -0.01078683290492       -2.05900101812026
H            2.57575118436225       -1.68762166143514       -1.59105494139764
H            4.80515548444408        1.22552265911374       -1.19192498178752
H            7.18912107973753        1.06003408394389       -0.22577769720571
H            9.46300262594830        3.58950620241312        0.18917080277258
H            9.98740175330477        2.57624915868754       -1.20446941414105
H           10.71854798468949        2.38937245892022        0.40488251820680
H            6.34338195193020       -5.16427659016719        1.47642377399337
H            4.83386882240025       -4.24341456307566        1.60800669881629
H            5.45348127413041       -4.72516326454799        0.00588989459387
H            4.10544989976236       -2.83505251789538       -0.08261710233902
H           -0.31324184373916       -1.57664468282917       -1.82666407166981
H           -1.11941279766106       -1.31245884312877       -0.26530692537671
H            0.42626135535072       -2.17531110076913       -0.33361161767132
H           -4.63450575140545        2.90599423108192       -0.20640794300966
H           -3.87894635517935        2.98610086509732        2.74014353493504
H           -4.91694217243828        1.77170656001529        1.98188792000734
H           -5.42708182369407        3.45739421077655        2.04339395838320
H           -2.70954469308980        4.75352732906021        1.26246381146599
H           -3.10008845025122        4.81915723949222       -0.46607509518524
H           -4.33422259678871        5.17459606223964        0.73207243788422
H           -0.77167803066339        3.01194914093932        2.86333526863079
