72
 energy: 99.392143911029 xtb: 6.6.1 (8d0f1dd)
N           -1.61640386895887        2.98253541178353        2.28001853067743
C           -1.61455621961541        2.21359491494010        1.29007732536554
C           -2.72979730564640        2.08963288391490        0.31188189792545
C           -3.28592476419282        0.67425503007600        0.36600132466048
C           -4.20734295806359        0.25256915478381       -0.59707140410039
C           -4.77027645966499       -1.00964272277427       -0.54925908159593
O           -5.68090411418018       -1.49670826038882       -1.43408058776136
C           -6.21114269535896       -0.63677131485952       -2.40950766567118
C           -4.39817836594774       -1.90248060461551        0.48356593494593
O           -4.99558915514514       -3.12212057838277        0.44281418722854
C           -4.74671468518653       -4.03101473584207        1.48461655954600
C           -3.48201275190680       -1.48638548027593        1.42963074919149
C           -2.94228102154821       -0.20634350271774        1.37449131844999
C           -2.10777395610472        2.37027115641604       -1.07766791446892
C           -1.24309010453818        1.23469207622958       -1.65577790060202
C            0.07465022772589        1.04903679629637       -0.98660181479739
N            0.58488057324764       -0.13045561183050       -0.58867975570971
C            1.95986992237736       -0.21561406999942       -0.13570868729272
C            2.91807667620240       -0.71912818175540       -1.22898387991592
C            4.33461430600155       -0.78088083238231       -0.69775418013011
C            5.12745180780845        0.35605878893327       -0.78771139896659
C            6.41594146375710        0.28222732916173       -0.27236470927944
C            6.84446797994246       -0.85053248344979        0.28249600750207
O            8.80124453474235        1.29966859437775        0.37047578293820
C            9.62280968608380        2.25410096778686       -0.04372180372327
C            6.13613254564735       -2.01723995886252        0.39984704803354
O            6.64612177149584       -3.11767029528968        0.98442530910046
C            5.84837321745966       -4.25409609689784        1.03447246197530
C            4.83318442106025       -1.94067667044421       -0.11216559723851
C           -0.14113158362376       -1.36827366717425       -0.75316973248179
C           -3.89653602421592        3.08082513508153        0.58336718003254
C           -4.56697344306864        2.79812723050774        1.92689534287791
C           -3.47044275791951        4.54619186989855        0.52118266942421
H           -4.50983719837606        0.93369550798730       -1.37624041477040
H           -6.69048857399815        0.24142388466150       -1.96180517796074
H           -6.96392773990145       -1.21893342015393       -2.93967607170507
H           -5.44610469219581       -0.31211335682512       -3.12180790639591
H           -5.02768504439152       -3.62108077992661        2.45737270087904
H           -5.36269029040892       -4.90296838425003        1.26930320571941
H           -3.69412271556939       -4.33865177918267        1.50946013422307
H           -3.18071183374709       -2.14436664050596        2.22766572420794
H           -2.25067001796543        0.09851970915099        2.14426912910811
H           -2.92762093245930        2.55360461744477       -1.77955187935876
H           -1.51466239047941        3.27916448015838       -1.03065171789696
H           -1.82475637301620        0.31106106203599       -1.64788999972489
H           -1.04357868346077        1.50660764976777       -2.69394746431726
H           -0.74055377935596        1.58646696756262        1.02472445892336
H            0.70149549338114        1.92045719663952       -0.89732440468969
H            2.01552805224353       -0.89180886089475        0.72387592539963
H            2.28917871068292        0.78001030351172        0.18775903970786
H            2.88438320874034       -0.01820917410937       -2.06885714046669
H            2.59086945204771       -1.69667871011828       -1.58460092321155
H            4.76349662797747        1.26759558440439       -1.25159178254227
H            7.10886868403176        1.13768487993501       -0.28142578005639
H            9.27006333775884        3.26771443812480        0.24333448064277
H            9.82369320980692        2.28011610124218       -1.13684418255836
H           10.58692021853445        2.07751067276256        0.45838115059031
H            6.47660809542799       -4.99653705987695        1.51261480105647
H            4.94590838858472       -4.09938326558504        1.63622323111439
H            5.55827907995982       -4.60016238522614        0.03564378595217
H            4.19736783112823       -2.81350057645912       -0.06107071428894
H           -0.30227912110247       -1.60268300549662       -1.80671427415987
H           -1.10537321248974       -1.30862113781376       -0.24724281897421
H            0.43796871171192       -2.16962801230584       -0.29973865143790
H           -4.63494548322574        2.90586892371276       -0.20606935784741
H           -3.86187325929773        2.97673287808441        2.73064009329965
H           -4.91796425054322        1.77091303109221        1.98209839809516
H           -5.42061969863866        3.45880046392889        2.05956484215535
H           -2.70342499205545        4.73933353605804        1.26365489338602
H           -3.09938645229200        4.81806606533481       -0.46333443723991
H           -4.32554133273521        5.17954037127551        0.74164414213020
H           -0.77806232731211        3.01735884207221        2.85081515363974
