72
 energy: 0.612285653485 xtb: 6.6.1 (8d0f1dd)
N           -1.52373616899155        2.83046068932154        2.25648981841198
C           -1.56455258638651        2.15753092980722        1.19631761333047
C           -2.74300382796477        2.06632643660419        0.26147569186980
C           -3.31281862048869        0.65608163066417        0.33402662442556
C           -4.28743299907437        0.24847653329519       -0.57807997164322
C           -4.83459546099309       -1.01993867782453       -0.53426858932660
O           -5.79371236848918       -1.49346835365455       -1.38046508639734
C           -6.36165720206466       -0.61491365214094       -2.31703386163573
C           -4.39899768091185       -1.93494831730980        0.44924871829166
O           -4.99827327316123       -3.16030394041689        0.41701211107182
C           -4.68000607220133       -4.08729820028433        1.42203792402333
C           -3.43402237431106       -1.53164629356389        1.35166197764931
C           -2.89862013313725       -0.24969127496793        1.29319385589597
C           -2.18121964039393        2.31464190068986       -1.16430771624942
C           -1.25514941913197        1.19761253205649       -1.67745266837749
C            0.01571161309655        1.13904197738683       -0.90466055369574
N            0.62941885282710       -0.06269235171954       -0.56201526658265
C            1.99904173948386       -0.07156331454294       -0.15401669966233
C            2.94536368592087       -0.58208255732544       -1.26692201830153
C            4.37178331281260       -0.50791153877422       -0.81343149752985
C            5.09103794449207        0.65819533478524       -0.99628254743871
C            6.39198901366304        0.74772142820699       -0.53897033454866
C            7.06266086372424       -0.27171554856173        0.12148550696734
O            8.37752654205391       -0.01866740556151        0.52853619803407
C            9.12871973142309        1.15418926337934        0.24463642914860
C            6.31823445069005       -1.48506118110483        0.31643881221933
O            6.92957018480396       -2.52257669494437        0.95266083334734
C            6.23387575031031       -3.72938776157328        1.13115882355735
C            4.99720489320637       -1.56673395989798       -0.14773186592177
C           -0.06482071162591       -1.31838111499160       -0.64631835608029
C           -3.87807757429733        3.07770015611742        0.58139923361992
C           -4.50977769766450        2.78025146158377        1.93976343664971
C           -3.40994008219468        4.53136984717210        0.54399578621422
H           -4.63124443332224        0.94269729547434       -1.32724273880864
H           -6.81867584229057        0.25524778746571       -1.83285755180951
H           -7.13515924170592       -1.19122428761870       -2.82282393615677
H           -5.62583109133505       -0.27613661708051       -3.05430079862416
H           -4.90931996771188       -3.69684615973069        2.41884644806387
H           -5.30514193476468       -4.95661913989666        1.22297191890223
H           -3.62588579245214       -4.38550032571792        1.38344314080653
H           -3.09096602572105       -2.20369600649564        2.12250317030958
H           -2.16561663423240        0.03941967103359        2.03059177640181
H           -3.01307838212732        2.42015686973332       -1.86458517266473
H           -1.62630876322953        3.25254140795150       -1.17041440940090
H           -1.79265787041382        0.25039812924095       -1.63295845432025
H           -1.03285120991186        1.40178082407442       -2.73551014468886
H           -0.69709880982085        1.63547756308134        0.73390726620783
H            0.68136695659469        1.98323194512442       -0.97392412009704
H            2.11049400962019       -0.71031561913928        0.73094616920338
H            2.29433612212918        0.94521637777797        0.11994263636162
H            2.79093687194005        0.04874007236452       -2.14595445111796
H            2.66597610159949       -1.60439329109639       -1.52588666339933
H            4.64586770177965        1.50278611464006       -1.50343899424804
H            6.94305519661028        1.65817214441195       -0.69905713056874
H            8.74306763050127        2.07000741921318        0.70771026322284
H            9.29400257106713        1.34517567223355       -0.82190479298377
H           10.10511218004855        0.94763208265008        0.69603113757187
H            6.94732787559950       -4.38130821605213        1.63191588055061
H            5.34795719096622       -3.61093532585078        1.76572518158026
H            5.93510476789623       -4.18211153421881        0.17894617934372
H            4.40639244569071       -2.47162042836906       -0.01345776949322
H           -0.23787343508898       -1.62451351253812       -1.68338729781769
H           -1.03114138700805       -1.25506987049467       -0.13719109698959
H            0.53581292374923       -2.08115985554533       -0.15253227768813
H           -4.64898635903107        2.95134508044249       -0.18906847359192
H           -3.77384914791759        2.91754564738791        2.72390774379756
H           -4.88265960155961        1.75953767304289        1.97903919210598
H           -5.34135833944854        3.45892865918351        2.11671734580751
H           -2.62030498248782        4.68921326911812        1.27078287574369
H           -3.05017646987327        4.81312900104888       -0.44232470729042
H           -4.24249102580669        5.18483455959500        0.79615644567518
H           -0.63947223219330        2.81477938021585        2.75946318515058
