72
 energy: 24.299665987969 xtb: 6.6.1 (8d0f1dd)
N           -1.56029924169148        2.89426973000699        2.27386060251048
C           -1.57471997579616        2.18636628260902        1.23684983372088
C           -2.73897830092877        2.07619638120222        0.27885121609059
C           -3.30779501770846        0.66510027012609        0.34364593614570
C           -4.26935475639151        0.25093067641344       -0.58020920046939
C           -4.81935638636452       -1.01727554178755       -0.53712499139420
O           -5.76709589093104       -1.49723259203400       -1.39527535708329
C           -6.32695891154674       -0.62142602936674       -2.33868153951077
C           -4.39875531778128       -1.92678944801325        0.45700160466911
O           -5.00113645493339       -3.15182162586110        0.42554157113936
C           -4.69532594488621       -4.07445065476084        1.43752642831005
C           -3.44512318030805       -1.51972713461058        1.36931676795605
C           -2.90972719251860       -0.23787543347644        1.31189309216860
C           -2.16565016518316        2.33113915031773       -1.14237669935797
C           -1.24777710950839        1.21563232870701       -1.68384177140805
C            0.04092119251732        1.11905283826547       -0.95393552211051
N            0.62468937380722       -0.09133317966630       -0.56054581692956
C            1.99367338658576       -0.11402522448346       -0.14944571027866
C            2.95372743011415       -0.62192850199188       -1.25692217120805
C            4.37923026548624       -0.57969942971450       -0.78803166003740
C            5.10307243696433        0.58683017215271       -0.95000529255114
C            6.39645654923095        0.65221469077236       -0.47793497205933
C            7.11011442188677       -0.34576260040622        0.17304242230397
O            8.46765382450382        0.18009304178966        0.52077119494692
C            9.19284236187727        1.37599039752867        0.16956044329595
C            6.34961869955717       -1.57932447321382        0.35011575216949
O            6.89395952688996       -2.66027031416580        0.97182274433382
C            6.14914540155227       -3.84449319437527        1.10932527930536
C            5.01734261445963       -1.64250965405937       -0.13234501963309
C           -0.08119973205550       -1.33666643265724       -0.67407289563521
C           -3.88766219942094        3.07882889952651        0.58106568510756
C           -4.52585372259193        2.78527149505670        1.93678183124854
C           -3.42708866066195        4.53455899346526        0.53827401939556
H           -4.60378913259936        0.94015759337912       -1.33815056031481
H           -6.78844805363424        0.25083131788599       -1.86175266714808
H           -7.09583230613355       -1.19837046789561       -2.85123064676882
H           -5.58355159801248       -0.28458161369097       -3.06883462651987
H           -4.93574986319807       -3.67931928457671        2.42944006859368
H           -5.31763129311518       -4.94565317976756        1.23595731757251
H           -3.64050856363790       -4.37354829095828        1.41314160836667
H           -3.11144516877747       -2.18911795940473        2.14667067770200
H           -2.18574902196508        0.05515271342619        2.05607738733756
H           -2.99776715165714        2.45599908798935       -1.84297806333244
H           -1.59997967007119        3.26022928555217       -1.13773566864757
H           -1.78411862712638        0.26802206844254       -1.64311396284454
H           -1.06457442987272        1.43171956968169       -2.75152635031828
H           -0.71148964320609        1.62518803347105        0.83419957698133
H            0.72162644422028        1.95489829042230       -0.98941547609577
H            2.10087003171472       -0.75876965721472        0.73310270324207
H            2.28587905528535        0.90296362847225        0.13159137316389
H            2.81566708422465        0.03284456093423       -2.12330339450919
H            2.65041583404051       -1.62984331713952       -1.54311229255175
H            4.67135909899460        1.44539096893270       -1.44690420607864
H            6.96394597629553        1.55731216860042       -0.61089104222796
H            8.83680659876846        2.32408232030863        0.59883106021697
H            9.38976960822426        1.54789600341760       -0.89665511670795
H           10.17636554776008        1.19617119583966        0.63323756416629
H            6.83732389252812       -4.52524329197306        1.60668823727048
H            5.25644377410998       -3.71755084613446        1.73371367546097
H            5.84979469985060       -4.27124787283080        0.14468607292008
H            4.40644255507199       -2.54569162225160       -0.02247047703033
H           -0.25310118846916       -1.62769600810547       -1.71464196230447
H           -1.04761120911964       -1.26748140497996       -0.16619721489199
H            0.50961803922619       -2.11038354852493       -0.18298714408797
H           -4.65089789587665        2.94050272222959       -0.19553926088199
H           -3.79366368849242        2.93294640845446        2.72159060471783
H           -4.89206531107071        1.76219211457430        1.98023035950090
H           -5.36225967229306        3.46022278472447        2.10642191441640
H           -2.64194114484541        4.69561266362893        1.26804719641218
H           -3.06247524416319        4.81080016424170       -0.44778507841180
H           -4.26263506339054        5.18663225128260        0.78385957399453
H           -0.68110317190084        2.87001409100245        2.77854783820117
