72
 energy: 97.592392115421 xtb: 6.6.1 (8d0f1dd)
N           -1.60344397889652        2.97632583594056        2.29289955063787
C           -1.59314306590388        2.22147386368138        1.29792723591929
C           -2.72447787430207        2.09239225234271        0.31765226871485
C           -3.28099966932872        0.67729495852453        0.37133310753985
C           -4.19305791995653        0.25045459994981       -0.59814629000807
C           -4.75459244364864       -1.01145547835745       -0.55273197550764
O           -5.65425165364518       -1.50352751697316       -1.44546199537899
C           -6.16902136503761       -0.64867269678142       -2.43593397934867
C           -4.39374083538886       -1.90104177478951        0.48708730442439
O           -4.99328641733780       -3.12005219223308        0.44735110734901
C           -4.76172555865553       -4.02162733301374        1.50109387382859
C           -3.49015387547457       -1.47748217088601        1.44305040422955
C           -2.94355465134838       -0.19985666660124        1.38562573230032
C           -2.09933639469798        2.37629849036119       -1.07494970730680
C           -1.23872839854773        1.23833424930286       -1.65740870886816
C            0.06120069954664        1.05160862818740       -0.96921905135507
N            0.57568400333799       -0.12737861049866       -0.59341548282042
C            1.94258406119783       -0.21548084912954       -0.13251250805725
C            2.90976550880806       -0.70531571190511       -1.22618388883303
C            4.31775584234004       -0.80026232805475       -0.68135990060749
C            5.15936025333742        0.30422548756435       -0.73467355991100
C            6.44906932387423        0.18643823025693       -0.20913562962592
C            6.81833506091073       -0.99308954357026        0.32944855912626
O            8.93072979099222        1.67046802371344        0.22563443287112
C            9.80080887764343        2.62822946193562       -0.12672897557290
C            6.04056779478347       -2.13066855211721        0.41675100165244
O            6.52641188174317       -3.26982255884532        0.98157457257052
C            5.71817129677038       -4.42354186991246        1.01514479662191
C            4.75246104972010       -1.99550054081575       -0.11365698421249
C           -0.14890569334516       -1.35956344918865       -0.76994646463561
C           -3.89749137285195        3.08125843303637        0.58266346700994
C           -4.57224748507510        2.80161835076548        1.92455363667967
C           -3.47567807693635        4.54732822623886        0.51662945087913
H           -4.47709960546274        0.92523716293695       -1.38907682399199
H           -6.65167565179469        0.23204039385678       -2.00018099471226
H           -6.91418900555903       -1.23745715457381       -2.96828378703892
H           -5.39444537990089       -0.33034210249763       -3.14209489742311
H           -5.06237674711341       -3.60111221358932        2.46605635561402
H           -5.37917554576578       -4.89100568096681        1.28078333617459
H           -3.71144577837544       -4.32864044111013        1.55035741322039
H           -3.21004143303111       -2.12602135615427        2.25784622288976
H           -2.26919819116136        0.10656247547992        2.17050090120205
H           -2.90552521004659        2.57887063636464       -1.77982958872141
H           -1.49135095882420        3.28005596060724       -1.00708799581009
H           -1.81873493738029        0.31753398161395       -1.65518212984569
H           -1.03781479361500        1.49903144359465       -2.70689616460333
H           -0.72585897638586        1.60921202240802        0.99983328728903
H            0.70494064751432        1.90629634399602       -0.85138764373968
H            1.98085251702063       -0.90171061885211        0.71802148498813
H            2.27012578119626        0.76783786750782        0.20769001596930
H            2.88389182728376       -0.00094216150309       -2.05999495560999
H            2.57673607383739       -1.67859230823577       -1.59142745523202
H            4.82929228174573        1.23058294371997       -1.18400474021398
H            7.17135166237266        1.02337926920315       -0.22244069825231
H            9.50663109251459        3.66285340872861        0.15601746927369
H           10.04625006002775        2.63394163912208       -1.21010175836846
H           10.76972920627457        2.43782089308572        0.39104157095732
H            6.32624341474179       -5.19722103359257        1.48288436489810
H            4.81159984099531       -4.28611782403238        1.61798314289949
H            5.43173177571105       -4.76494217278049        0.01298337217078
H            4.07539573750353       -2.83965763251496       -0.09541285586886
H           -0.31579314800788       -1.57835470514314       -1.82751743601503
H           -1.11584721424816       -1.31124800436360       -0.26282540642081
H            0.42692918092308       -2.17271286305890       -0.33498361178629
H           -4.63686157261052        2.90626069517559       -0.20842230818403
H           -3.87567748905582        2.98685808923955        2.73521248177743
H           -4.91619998325111        1.77163627695673        1.98203672104234
H           -5.43113474849060        3.45793298536398        2.04470103870512
H           -2.71117720281204        4.75122599345987        1.25932037340547
H           -3.09975677066501        4.81587901544783       -0.46729579341972
H           -4.33711099116957        5.17646245885998        0.72872219356804
H           -0.76618135016286        3.00480005256976        2.87015376550202
