72
 energy: 97.601916675881 xtb: 6.6.1 (8d0f1dd)
N           -1.59714367505032        2.98365993649537        2.29654487151303
C           -1.59770441075003        2.21805623421456        1.30579174965020
C           -2.72303225071379        2.08971443428666        0.32125345137564
C           -3.28191394752456        0.67571395414700        0.37234823570494
C           -4.19622124482940        0.25060111287971       -0.59564937786420
C           -4.75963563757144       -1.01039154899692       -0.54987329384716
O           -5.66320875201062       -1.49815965230912       -1.44231627968488
C           -6.18800253131480       -0.64033449371633       -2.42403696425126
C           -4.39410855514815       -1.90323047195445        0.48711034739986
O           -4.99485195048525       -3.11952468326991        0.44626888318114
C           -4.75433500691587       -4.02689724705166        1.49520858973774
C           -3.48730603689067       -1.48095220557653        1.43977705675499
C           -2.94256736249112       -0.20241121252502        1.38346222686616
C           -2.09812307652894        2.36751657191960       -1.06728033849740
C           -1.23925133520923        1.23019103904792       -1.65098485657488
C            0.07683573945138        1.03652509892661       -0.99452734178377
N            0.58082036452735       -0.14049877918889       -0.57225219110072
C            1.95675132630334       -0.22158066298636       -0.13038142924298
C            2.91942020980067       -0.70951889644947       -1.22033698308232
C            4.33506193035437       -0.77881572650720       -0.68719782407386
C            5.15727682507573        0.34021943621945       -0.75361354470428
C            6.45220717923715        0.25002231981139       -0.23917317394751
C            6.82182305194671       -0.90368786924343        0.29757911715273
O            8.84536620776077        1.45558731528561        0.29717990347549
C            9.68358747197082        2.41256789393216       -0.09474802306764
C            6.08060967455042       -2.06373538770900        0.40300001730893
O            6.58335665450708       -3.18569325785856        0.97637937666887
C            5.78589876683470       -4.32415114850339        1.01670155489093
C            4.78700580103723       -1.96713153667227       -0.11429787223926
C           -0.14754466752329       -1.37669020837636       -0.75707365903368
C           -3.89281784296665        3.08031286733487        0.58536563534907
C           -4.57137518985070        2.80037917207537        1.92566468424213
C           -3.47345838373776        4.54652323815973        0.51932159739373
H           -4.49127954168340        0.92931256354544       -1.38166889728786
H           -6.67057130852699        0.23888682862056       -1.98161411879905
H           -6.93729152544894       -1.22449568068346       -2.95710372063372
H           -5.41846529894074       -0.31775248505374       -3.13222358674451
H           -5.04480341028303       -3.61053381808838        2.46260588171713
H           -5.37164628575033       -4.89622975268568        1.27576917418613
H           -3.70268453379007       -4.33309647593568        1.52928821198541
H           -3.19457880616207       -2.13622530705661        2.24354112589106
H           -2.26263840502504        0.10551513953016        2.16142297602126
H           -2.91294447604670        2.57057748171188       -1.77039370081458
H           -1.50038675065448        3.27712103392380       -1.01097681013011
H           -1.82533297360647        0.31263236338815       -1.64916912692464
H           -1.03491605671170        1.50695406211114       -2.69219740126503
H           -0.73192621178340        1.59186808329724        1.01951489235505
H            0.70163807939392        1.91002653613844       -0.89091152231677
H            1.99106655932806       -0.90167868773770        0.72222677432051
H            2.28735311338766        0.76640431763363        0.20480153694577
H            2.89306877306885       -0.01835243853739       -2.06334703301165
H            2.59160108390387       -1.68886107248469       -1.58321588049002
H            4.79614639150664        1.25088379053361       -1.21683345342372
H            7.17811378041129        1.09028265223619       -0.23863740671709
H            9.35766636703403        3.43792643400272        0.19058966073864
H            9.90769658268883        2.42610578842487       -1.18248900731071
H           10.64357280840272        2.23646736506482        0.42222433432364
H            6.40498088068362       -5.07916464331353        1.49109839116529
H            4.88249218407491       -4.17338661429657        1.61813333976905
H            5.50044857344068       -4.66395901641531        0.01445527146380
H            4.14552852359400       -2.83583870545452       -0.07386450424425
H           -0.30833880811020       -1.59003930760781       -1.81783840589274
H           -1.11677255852861       -1.31568253714741       -0.25880854176057
H            0.42741275747147       -2.18440106692961       -0.31977611161059
H           -4.62969270236318        2.90385265579821       -0.20619241106088
H           -3.87476108366934        2.98467386238156        2.73582299545689
H           -4.92015485122365        1.77187082625720        1.98273080396295
H           -5.42810487139357        3.45848417666081        2.04791815307062
H           -2.70960570393118        4.75165661593641        1.26269640165059
H           -3.10161855407413        4.81955864523004       -0.46570435815332
H           -4.33499194632179        5.17593315255090        0.73321730699620
H           -0.77309611879283        3.02706836573660        2.88340800726716
