25
 energy: 0.000000000000 xtb: 6.6.1 (8d0f1dd)
C            3.23720132972391        1.16630909158653        0.08434468864950
N            2.29877796055224        0.07527476373246        0.03981602671198
C            2.58028186251803       -1.21425391179017        0.03006175752192
N            1.43813944744728       -1.93419254010258        0.00098261751768
C            0.39035684826767       -1.05887462812143       -0.00790371763344
C            0.93510047688824        0.21347817468824        0.01709077332874
C            0.09450143016486        1.40504290868848       -0.00410946993748
O            0.49712746915594        2.54126690785742       -0.00342325656480
N           -1.25076628431515        1.06271869620815       -0.03085477937476
C           -2.21907191394203        2.15522079838987       -0.05001256521996
C           -1.81739470187490       -0.20012724136556       -0.04692818139228
O           -2.99983858926755       -0.37846413507442       -0.07008877579474
N           -0.92618577614240       -1.30210203518959       -0.03682761236648
C           -1.46982251276835       -2.64643077634382       -0.06029819901142
H            3.71247229913541        1.21471443890471        1.06488839270555
H            4.00791460421487        1.03430799217987       -0.67357688121503
H            2.69909982127087        2.09770098766290       -0.09130154035862
H            3.56654087521359       -1.63682977417947        0.04233139674524
H           -1.67107945562430        3.09322822573871       -0.02552706696334
H           -2.82428927394145        2.09428605349656       -0.95318074103337
H           -2.87644002486466        2.07745706351925        0.81450059976605
H           -1.17061985538665       -3.19584861009707        0.83242224714061
H           -1.14560246782873       -3.17511580834413       -0.95688266944647
H           -2.55549768731684       -2.55659960601237       -0.07459039105944
H            1.38130842369251       -2.94313824728853       -0.01389874052104
25
 energy: -6.355220973011 xtb: 6.6.1 (8d0f1dd)
C            3.23779845393316        1.17630741755501        0.09654799574622
N            2.30697263102888        0.10090456320030        0.01596773450149
C            2.60402632866734       -1.24263538782509        0.01593815561674
N            1.42155406225776       -1.94086204468611       -0.01182046431765
C            0.40081936526673       -1.06217284616467       -0.01596513148161
C            0.92206703344606        0.22400721281756        0.00480885298970
C            0.11879417444327        1.38505370398874       -0.01180406328216
O            0.49800213004883        2.55988538489168       -0.01327217889943
N           -1.26520033977980        1.04940431449287       -0.03124068571309
C           -2.21491633054533        2.14946037259404       -0.04709248120598
C           -1.81466292351587       -0.19610993958482       -0.04248294586567
O           -3.01397813880917       -0.38319462551470       -0.05916519355058
N           -0.93758471982070       -1.30063074430289       -0.03615613396994
C           -1.47189753934042       -2.64156204656339       -0.05225083042850
H            3.66056444946692        1.24661267120014        1.10317382440802
H            4.04394715967459        1.02527761471297       -0.62589294041712
H            2.70283857193004        2.09850827979378       -0.12068757629723
H            3.57956444050292       -1.65704998989844        0.01600785518168
H           -1.65442445414879        3.08230364897626       -0.02540067333592
H           -2.82335519081693        2.09522453243458       -0.94941032887620
H           -2.86911724915250        2.07990197124169        0.82128889002976
H           -1.16568553800558       -3.19026332267384        0.84175948242711
H           -1.14620126801039       -3.17752188369639       -0.94686807469085
H           -2.55715354031286       -2.55230685300582       -0.06459564337225
H            1.36835429588141       -2.94502396725571       -0.02624562337953
25
 energy: -6.381111199416 xtb: 6.6.1 (8d0f1dd)
C            3.23363874228297        1.17955844359471        0.10764569021047
N            2.31140070623404        0.09853176981511       -0.00301707496650
C            2.60837386112397       -1.24804496383077       -0.00124664898282
N            1.42236779723352       -1.94384382211276       -0.02434928616905
C            0.40279144708297       -1.06353232848074       -0.02381314200518
C            0.92554313626094        0.22212970596677       -0.00585647990032
C            0.12334189636539        1.38409048770779       -0.01842726880899
O            0.50260623723743        2.55951786398503       -0.02163191196623
N           -1.26220234306586        1.04799926676360       -0.03121788590572
C           -2.21013811979328        2.14921149572687       -0.04473231981440
C           -1.81405184744000       -0.19638121776408       -0.03806872602344
O           -3.01412600364250       -0.38222348332804       -0.04870766085788
N           -0.93684107090066       -1.30082473149834       -0.03489572755749
C           -1.47232245215394       -2.64132803831020       -0.04408711805961
H            3.60216316592089        1.27410548165183        1.13531825518044
H            4.07205149164743        1.01615030011853       -0.57711636025011
H            2.70515685977990        2.09594063381861       -0.14878584034067
H            3.58303507049192       -1.66805083008006       -0.01150893425162
H           -1.64573609052240        3.07960031844987       -0.02546588725983
H           -2.82133433191061        2.09666368336581       -0.94538819259809
H           -2.86201315828051        2.08288759050982        0.82574555941714
H           -1.16376210046411       -3.18748317970385        0.85089882143029
H           -1.14932679999694       -3.18167694857036       -0.93684188156617
H           -2.55752676919226       -2.55050888279305       -0.05469861948596
H            1.36373783170268       -2.94797473083373       -0.03745140151548
25
 energy: -6.345928648517 xtb: 6.6.1 (8d0f1dd)
C            3.22876306292457        1.18206226434819        0.12051234014726
N            2.31530010649628        0.09620599756073       -0.02224953238855
C            2.61187729862577       -1.25313638832594       -0.02046543423463
N            1.42275029248549       -1.94676232600619       -0.03856888033541
C            0.40453620633896       -1.06510484128766       -0.03245546611990
C            0.92856987823953        0.21992165652885       -0.01728795194739
C            0.12768946789842        1.38211735998901       -0.02611260154810
O            0.50702482321085        2.55770143670043       -0.03205236225121
N           -1.25917618204759        1.04646074832552       -0.03182819750910
C           -2.20509213514366        2.14911045992455       -0.04285577371282
C           -1.81266800735421       -0.19665788908635       -0.03379307264933
O           -3.01313514305805       -0.38144810252643       -0.03733732459783
N           -0.93603360098906       -1.30107569623342       -0.03334843755993
C           -1.47258967750909       -2.64097543693133       -0.03495838316597
H            3.54224092662734        1.29978892572693        1.16644805152949
H            4.09815854680629        1.00812478533529       -0.52505794764010
H            2.70937682367846        2.09307445580186       -0.17391099067600
H            3.58542237734760       -1.67763982493864       -0.04110758827798
H           -1.63684176860136        3.07713334406441       -0.02639839887732
H           -2.81941650226833        2.09778024575669       -0.94157729928399
H           -2.85417799980877        2.08576527843451        0.82999042395879
H           -1.16054560143273       -3.18381016011575        0.86108432349554
H           -1.15335743103506       -3.18587452203634       -0.92610263707868
H           -2.55772859725789       -2.54880150267268       -0.04305057688963
H            1.35921534509547       -2.95077527429692       -0.05084009198331
25
 energy: -6.250767449242 xtb: 6.6.1 (8d0f1dd)
C            3.22366179177170        1.18437247074145        0.13201222622529
N            2.31901626502308        0.09408980163843       -0.04094952986253
C            2.61492220148871       -1.25791198724111       -0.03877755093050
N            1.42294188996869       -1.94959437982065       -0.05135063861404
C            0.40621089680826       -1.06676054309256       -0.04033755728016
C            0.93143276717052        0.21759075065668       -0.02809971525443
C            0.13184829398655        1.37978826008118       -0.03335750217861
O            0.51101039576565        2.55537626210478       -0.04300084964483
N           -1.25612861059096        1.04479280960564       -0.03189754178846
C           -2.19982359664581        2.14917338701469       -0.04015915774032
C           -1.81086847400079       -0.19707014867629       -0.02923971639492
O           -3.01159285721208       -0.38081933602103       -0.02561903419149
N           -0.93491324376798       -1.30154421580614       -0.03171945322269
C           -1.47278798449415       -2.64071928933982       -0.02721349825657
H            3.48202020736430        1.32677168873992        1.19311452796306
H            4.12224454710140        0.99916769890221       -0.47345009461270
H            2.71556307848013        2.08953844276571       -0.20120584700801
H            3.58730031691644       -1.68637828277341       -0.06914547996681
H           -1.62748524995640        3.07472565057901       -0.02626109434369
H           -2.81727221228377        2.09950916056765       -0.93703405997230
H           -2.84614097605207        2.08864153372597        0.83498127255540
H           -1.15741030353421       -3.18121304120026        0.86933988833110
H           -1.15755653126530       -3.18928118775734       -0.91732760119331
H           -2.55786270925118       -2.54730381994969       -0.03310276967569
H            1.35448770001577       -2.95346267835437       -0.06224364956988
25
 energy: -6.093090654366 xtb: 6.6.1 (8d0f1dd)
C            3.21756794797428        1.18688108628831        0.14436390690939
N            2.32247029798761        0.09221629806431       -0.05928164424947
C            2.61758790613041       -1.26235053072565       -0.05810331624485
N            1.42310876303051       -1.95244029567596       -0.06479830892519
C            0.40782937901470       -1.06857882288351       -0.04849128587316
C            0.93408443377191        0.21508434699762       -0.03913422213275
C            0.13588018726390        1.37728146854753       -0.04075765578351
O            0.51479012177484        2.55285277429339       -0.05457301115036
N           -1.25306679765765        1.04314461917226       -0.03234192285949
C           -2.19454018281637        2.14926592040128       -0.03769505009459
C           -1.80891686651373       -0.19753217215770       -0.02500083794098
O           -3.00987922063861       -0.38020143544749       -0.01411416554609
N           -0.93351658392361       -1.30221044045933       -0.03009931764587
C           -1.47272465935849       -2.64051109504658       -0.01899712838601
H            3.42176400929271        1.35302771171210        1.21791958356481
H            4.14286408784028        0.99265129149077       -0.42105813563054
H            2.72248203192603        2.08610398656800       -0.22618980294358
H            3.58864147122967       -1.69455202519306       -0.09812138849548
H           -1.61819657247896        3.07241573331363       -0.02603621451050
H           -2.81516312114281        2.10140042068812       -0.93269306524781
H           -2.83801710406551        2.09130606130037        0.83972943130445
H           -1.15430278337888       -3.17783579101516        0.87862003118034
H           -1.16073746495372       -3.19284240339703       -0.90772979406131
H           -2.55776137494428       -2.54596046642254       -0.02292684675844
H            1.35077910955740       -2.95622254627974       -0.07450235509815
25
 energy: -5.882140101706 xtb: 6.6.1 (8d0f1dd)
C            3.20934838060612        1.19003448429170        0.15760716452983
N            2.32530087671539        0.09085210611609       -0.07710008862740
C            2.62018758905525       -1.26587901653504       -0.07786907216812
N            1.42396788609641       -1.95511875923024       -0.07874033565310
C            0.40949737089310       -1.07073032794835       -0.05692347145286
C            0.93625595618999        0.21245308079410       -0.05040811258847
C            0.13972364972236        1.37479575226273       -0.04829601486249
O            0.51826429036088        2.55037761955475       -0.06604860055989
N           -1.25002419424258        1.04173695208256       -0.03335931329333
C           -2.18920103922113        2.14956190594133       -0.03581209321852
C           -1.80685215506738       -0.19800647849760       -0.02112621238476
O           -3.00799536361568       -0.37977684963265       -0.00311523905834
N           -0.93197736484579       -1.30303691765136       -0.02898418518306
C           -1.47256053482766       -2.64047145471482       -0.01055464767509
H            3.36142093960924        1.37793782011309        1.24106879333675
H            4.15817616501812        0.98784304017892       -0.36696118915335
H            2.72991699999889        2.08333935474644       -0.25003658698171
H            3.58999261036839       -1.70125760295527       -0.12724051223703
H           -1.60902710738789        3.07043405363816       -0.02574968048674
H           -2.81286532433969        2.10359609605605       -0.92891085549347
H           -2.82992010870154        2.09392503739730        0.84377272313509
H           -1.15198341062883       -3.17402217059499        0.88871209903702
H           -1.16308623609677       -3.19689158552991       -0.89744724471521
H           -2.55754480181723       -2.54459173024281       -0.01260091555536
H            1.35017452676373       -2.95897375079637       -0.08760676396345
25
 energy: -5.615945061601 xtb: 6.6.1 (8d0f1dd)
C            3.19985105430978        1.19338257999329        0.17120502315051
N            2.32783122020833        0.08972782405536       -0.09446736942785
C            2.62282909722478       -1.26902024014959       -0.09805121356324
N            1.42532126147565       -1.95777028492695       -0.09289013665036
C            0.41132832115049       -1.07309124346898       -0.06543204393963
C            0.93822872074901        0.20975881636694       -0.06190722117448
C            0.14367091549365        1.37245817198269       -0.05659268936153
O            0.52175006535708        2.54795072424888       -0.07813369747752
N           -1.24657630702319        1.04055928745020       -0.03567483182263
C           -2.18351964092643        2.15011634255850       -0.03478195481239
C           -1.80438684441718       -0.19842390855536       -0.01765192847130
O           -3.00554950671895       -0.37946423050161        0.00762256870018
N           -0.93015581703786       -1.30392083577164       -0.02829466461753
C           -1.47220048893470       -2.64051017547801       -0.00203642580704
H            3.30081893202061        1.40129336282009        1.26255583787021
H            4.17044415006584        0.98293320515347       -0.31009652194362
H            2.73944073987092        2.08076712715443       -0.27475381862271
H            3.59146259855716       -1.70713716591676       -0.15665707778749
H           -1.59973751958197        3.06884124662441       -0.02616790205998
H           -2.81048782440988        2.10597128236730       -0.92561203638628
H           -2.82120901317126        2.09683683343455        0.84721170648829
H           -1.14966746674274       -3.16998803494599        0.89907483460667
H           -1.16526239013936       -3.20130232699356       -0.88692869641281
H           -2.55713585899037       -2.54327024993554       -0.00195928273104
H            1.35037579020618       -2.96172790213699       -0.10140234158074
25
 energy: -5.292136279190 xtb: 6.6.1 (8d0f1dd)
C            3.18959408962641        1.19688273696323        0.18455992504320
N            2.33002472648541        0.08907546909211       -0.11129734703501
C            2.62517389357427       -1.27147571278432       -0.11786073073346
N            1.42673673104056       -1.96027260337587       -0.10636941096452
C            0.41309762728186       -1.07558458489901       -0.07351953558323
C            0.93996300641625        0.20703480120690       -0.07306660997998
C            0.14752117021392        1.37021414455617       -0.06491954202428
O            0.52504402749231        2.54545688358884       -0.08996416383627
N           -1.24311982337035        1.03978521371700       -0.03792808778960
C           -2.17760888798687        2.15110517654533       -0.03383528055672
C           -1.80166031313132       -0.19872348135465       -0.01425081876927
O           -3.00266561711755       -0.37923400492568        0.01807722071173
N           -0.92826817512373       -1.30484131439711       -0.02787201265580
C           -1.47196726365354       -2.64058777240401        0.00580950263666
H            3.24062247990336        1.42425790958121        1.28146098832615
H            4.17851924937947        0.97903154005763       -0.25362803707179
H            2.75297204075800        2.07860257030591       -0.29968422650140
H            3.59263776023766       -1.71202077361877       -0.18559287316947
H           -1.59007173970579        3.06748003086602       -0.02795111558396
H           -2.80768217530619        2.10828060860856       -0.92231165675541
H           -2.81219490049099        2.10050739185046        0.85063325199515
H           -1.14839943791589       -3.16621340883138        0.90890191537538
H           -1.16702933018763       -3.20573789051890       -0.87693582409910
H           -2.55683606345715       -2.54192836989366        0.00746442321812
H            1.35084096522639       -2.96432073754610       -0.11441432595179
25
 energy: -4.905599182496 xtb: 6.6.1 (8d0f1dd)
C            3.17821196019977        1.19981634740152        0.20218116087438
N            2.33168574460399        0.08952891431347       -0.12755421791614
C            2.62704227367053       -1.27233531974618       -0.13885388618865
N            1.42832105082127       -1.96224996734605       -0.12043329676765
C            0.41463034098991       -1.07816389002929       -0.08177344032723
C            0.94130084417638        0.20425775178025       -0.08422110214373
C            0.15094961836099        1.36789728913433       -0.07340589680456
O            0.52760645944041        2.54285332202371       -0.10167798766598
N           -1.23989204140110        1.03906517699677       -0.04028003485464
C           -2.17147350154896        2.15236643773853       -0.03387306320610
C           -1.79896991804725       -0.19915232707035       -0.01076354003594
O           -2.99971968379608       -0.37923308475953        0.02853141484358
N           -0.92654760205167       -1.30591918402778       -0.02775632842022
C           -1.47202355695631       -2.64082260152015        0.01393416737654
H            3.18225216790461        1.44401481456232        1.30267273271243
H            4.17985931157981        0.97891572446132       -0.19888678921541
H            2.76821371390363        2.07962135890446       -0.30659054720416
H            3.59329399342896       -1.71494853124273       -0.21561516080142
H           -1.57978505964569        3.06609452843199       -0.03177535931194
H           -2.80413618436227        2.11038474994014       -0.92025477386730
H           -2.80313071449146        2.10527962677857        0.85281685989421
H           -1.14801446144113       -3.16255189035157        0.91919221900066
H           -1.16894839830399       -3.21061228993471       -0.86642188858391
H           -2.55679401243417       -2.54057210076119        0.01713599555122
H            1.35222450192101       -2.96642101161078       -0.12803389722371
25
 energy: -4.454278459193 xtb: 6.6.1 (8d0f1dd)
C            3.16572420976149        1.20135134098083        0.22064027378362
N            2.33275757103035        0.09011812775734       -0.14398244622478
C            2.62854605856212       -1.27256822338419       -0.16046412549612
N            1.43004390338641       -1.96399896202011       -0.13442103379959
C            0.41600219026963       -1.08082134845697       -0.09006965097260
C            0.94221376552519        0.20142402859377       -0.09572298488865
C            0.15404321953502        1.36587543904996       -0.08262268314811
O            0.52977859166346        2.54036465462221       -0.11431945916681
N           -1.23680280776826        1.03858047819596       -0.04301929981374
C           -2.16552767764934        2.15383463088735       -0.03435011939532
C           -1.79614176663876       -0.19949745733043       -0.00789140365059
O           -2.99650097137109       -0.37920241233945        0.03837239956789
N           -0.92484486649545       -1.30697830220435       -0.02831424878801
C           -1.47169697366382       -2.64108448230728        0.02179841343360
H            3.12228202801186        1.46249819739401        1.32185989473693
H            4.17678224241241        0.97739541956119       -0.14294186065506
H            2.78898226244063        2.08056598574829       -0.30883469239092
H            3.59356990485602       -1.71714131182244       -0.24498500121740
H           -1.57000473896287        3.06516237766280       -0.03496208405490
H           -2.80039677332255        2.11334075361229       -0.91908654545357
H           -2.79428386298121        2.10949727844368        0.85425108982003
H           -1.14669332035337       -3.15855153186593        0.92916388507448
H           -1.17050764556721       -3.21540488681627       -0.85623863517631
H           -2.55635468650540       -2.53945241188167        0.02721078425809
H            1.35566311960970       -2.96842304299252       -0.14180555441632
25
 energy: -4.010144910077 xtb: 6.6.1 (8d0f1dd)
C            3.15231820056745        1.20391361210864        0.23589225379568
N            2.33309977997254        0.09266259883937       -0.16096037332312
C            2.62936805959417       -1.26890180669363       -0.17553173703714
N            1.43264858430424       -1.96433006391080       -0.14824549003916
C            0.41736178948353       -1.08310661607383       -0.09885759413771
C            0.94250493256238        0.19932477811510       -0.10745842637788
C            0.15677417356283        1.36460688512664       -0.09158498015457
O            0.53155834292130        2.53850760152523       -0.12588580992460
N           -1.23387623310695        1.03846355000246       -0.04544307374743
C           -2.15973531169465        2.15558787784520       -0.03622988921416
C           -1.79307161179129       -0.19969804294129       -0.00477309283909
O           -2.99291943174413       -0.37919662884390        0.04885111158167
N           -0.92302784743323       -1.30798468283368       -0.02912718712536
C           -1.47118908759615       -2.64136375053661        0.02971281181204
H            3.05939700982120        1.47780178378420        1.33618442021283
H            4.17265203634234        0.97440826442336       -0.08752025757306
H            2.80929683612294        2.07970924166733       -0.32018510072434
H            3.59265500647318       -1.71636391094985       -0.27518514575299
H           -1.56039723522351        3.06448095624460       -0.03968185644958
H           -2.79548191254712        2.11593200813373       -0.91989212566947
H           -2.78620996861466        2.11491872211099        0.85402884113180
H           -1.14549127410088       -3.15447341246021        0.93927080845369
H           -1.17191172302993       -3.22047190333397       -0.84580969505414
H           -2.55577265884403       -2.53849836269389        0.03732119240111
H            1.36092133407903       -2.96898494330043       -0.15464618197683
25
 energy: -3.741428700336 xtb: 6.6.1 (8d0f1dd)
C            3.13953706763538        1.20426594340743        0.25143266883708
N            2.33332308142177        0.09585694001190       -0.17759437179645
C            2.63080731702133       -1.26426369572935       -0.16038801941438
N            1.43523490161393       -1.96350093742325       -0.15973246196973
C            0.41825727531298       -1.08443715088378       -0.10885308962363
C            0.94292293388003        0.19769385596156       -0.12005432622683
C            0.15902110577441        1.36369655701948       -0.10137653918443
O            0.53218838200604        2.53692288754676       -0.13816653299430
N           -1.23100931931398        1.03878729476844       -0.04741767076720
C           -2.15496329132346        2.15730454750356       -0.03777185967421
C           -1.79009469501083       -0.19937024439067       -0.00169264229548
O           -2.98935545127474       -0.37844831912138        0.05944843079297
N           -0.92137641804621       -1.30808753711078       -0.03007845745291
C           -1.46979736546944       -2.64106122451962        0.03773517468598
H            2.99199284606925        1.48967047599663        1.34793451903268
H            4.16914802938207        0.96337516602680       -0.02862161960738
H            2.83155151985495        2.07737095310940       -0.32690153520856
H            3.58919971682664       -1.71198462556419       -0.30852409202273
H           -1.55332670697631        3.06474522729492       -0.04536149137211
H           -2.79400422476104        2.11766014445072       -0.91878454945753
H           -2.77835115233791        2.11927841635277        0.85450651212355
H           -1.14210992655055       -3.14932556203774        0.94921695213154
H           -1.17220758538448       -3.22450915734420       -0.83544629501931
H           -2.55429847040696       -2.53750113276160        0.04849020627879
H            1.36827975860441       -2.96814801387762       -0.16660382742667
25
 energy: -3.788218880248 xtb: 6.6.1 (8d0f1dd)
C            3.12684647690803        1.20348426178975        0.26372022150727
N            2.33424280604872        0.09693357593406       -0.19484713191093
C            2.63371474946792       -1.26338076622864       -0.13739909125762
N            1.43769059143693       -1.96199533733575       -0.16904973196297
C            0.41877104319072       -1.08509937983888       -0.11815043300390
C            0.94404910897770        0.19601408477174       -0.13301045864700
C            0.16003445487171        1.36276917644421       -0.11115173045844
O            0.53181373409110        2.53491933625458       -0.15106768999464
N           -1.22863899034964        1.03868430648987       -0.04707392574909
C           -2.15083541751510        2.15854867535377       -0.03757203947084
C           -1.78758674632623       -0.19968811016646        0.00205207643037
O           -2.98639788090374       -0.37770218998413        0.06989483296098
N           -0.91996965374222       -1.30819259580130       -0.02897720377221
C           -1.46832130150331       -2.64102095805791        0.04563815332181
H            2.92310840732083        1.49334841435465        1.34904213877035
H            4.16488476328308        0.95568322600205        0.02865201150042
H            2.85271740595367        2.07417571145893       -0.33377987363985
H            3.58463719809564       -1.70527177215421       -0.34147292321729
H           -1.54796994976584        3.06529240601704       -0.05191789813292
H           -2.79511762120387        2.11638010829167       -0.91479846091524
H           -2.76973391214038        2.12366391647052        0.85763903848180
H           -1.13988425289352       -3.14444190440901        0.95922537111956
H           -1.17130009432965       -3.22849152893302       -0.82500212770543
H           -2.55281979981854       -2.53712592323124        0.05837140449485
H            1.37557173610909       -2.96605614783650       -0.16256443741928
25
 energy: -4.546986570312 xtb: 6.6.1 (8d0f1dd)
C            3.12492908557152        1.20190447084988        0.25817715724219
N            2.33585921811861        0.09530487186536       -0.20738261829335
C            2.63616837919410       -1.26464400681633       -0.11582111351366
N            1.43824168663619       -1.96028671706249       -0.16285065064537
C            0.41922136790909       -1.08267671321374       -0.12211487716948
C            0.94600693351817        0.19685824222228       -0.14511070002669
C            0.16037078419328        1.36489509465426       -0.11741701910254
O            0.53235328350488        2.53679319163670       -0.14461632872252
N           -1.22773503066586        1.03921790588161       -0.04474349059097
C           -2.15331805849983        2.15692622996569       -0.03280277957264
C           -1.78699830377521       -0.19999447011454        0.00413513308454
O           -2.98595582545258       -0.37630833213044        0.07356219921012
N           -0.91874785588538       -1.30742726341576       -0.02981498290267
C           -1.46568902729601       -2.64098367735709        0.04616144575556
H            2.87597433269035        1.49057304306915        1.32179450068498
H            4.16827344330496        0.94470124234712        0.07754916218684
H            2.87213642046946        2.06870914547007       -0.35631379432639
H            3.57829057155372       -1.70220076195642       -0.36617697401364
H           -1.55599234840110        3.06712187951063       -0.04636662481116
H           -2.79793470589465        2.11462963443897       -0.91006688154502
H           -2.77122301036189        2.11821910110101        0.86305684222122
H           -1.13553600187758       -3.14594480542418        0.95694661592756
H           -1.17111322993899       -3.22598479289517       -0.82763612041492
H           -2.54989235592557       -2.53797615218343        0.06668847517087
H            1.37384565564280       -2.96427497803778       -0.14852423520565
25
 energy: -0.809112438107 xtb: 6.6.1 (8d0f1dd)
C            3.12595747270928        1.19837492816103        0.24404399981761
N            2.33858042461802        0.08955733377803       -0.20574011172376
C            2.63698967543578       -1.27037835952711       -0.11293372686707
N            1.43769631782172       -1.96522844994419       -0.15836610746677
C            0.42097310697775       -1.08481647361795       -0.12251373597850
C            0.94943883696916        0.19402163473097       -0.14841034098709
C            0.16380171580068        1.36312063225878       -0.11592827696138
O            0.53902770280998        2.53366634010460       -0.14266610486526
N           -1.22325796248928        1.04051349826269       -0.04493552331949
C           -2.15053459600764        2.15745433773352       -0.03200836881082
C           -1.78357662021885       -0.19886926511635        0.00322746508143
O           -2.98252165302917       -0.37371766882168        0.07092285741859
N           -0.91675788832889       -1.30721484117104       -0.02969087648253
C           -1.46526459227544       -2.64038656304794        0.04139582192440
H            2.80680551140190        1.54282534312099        1.34450665076779
H            4.17490702154671        0.93055613545554        0.04410989378334
H            2.87341558753935        2.06410040161418       -0.36434270102648
H            3.57338252935491       -1.70604388120547       -0.38568826221748
H           -1.55718711230578        3.07036373602577       -0.04328590494186
H           -2.79403793738435        2.11340471058172       -0.91011026770107
H           -2.77039029174321        2.11532744240041        0.86239883743436
H           -1.13722936961722       -3.14751043579578        0.95214298219049
H           -1.17008480598862       -3.22373332691623       -0.83297444521607
H           -2.54938731056191       -2.53708419862101        0.05905400257376
H            1.37146854193774       -2.96927422169943       -0.14517384423163
