25
 energy: 0.000000000000 xtb: 6.6.1 (8d0f1dd)
C            3.23720132972391        1.16630909158653        0.08434468864950
N            2.29877796055224        0.07527476373246        0.03981602671198
C            2.58028186251803       -1.21425391179017        0.03006175752192
N            1.43813944744728       -1.93419254010258        0.00098261751768
C            0.39035684826767       -1.05887462812143       -0.00790371763344
C            0.93510047688824        0.21347817468824        0.01709077332874
C            0.09450143016486        1.40504290868848       -0.00410946993748
O            0.49712746915594        2.54126690785742       -0.00342325656480
N           -1.25076628431515        1.06271869620815       -0.03085477937476
C           -2.21907191394203        2.15522079838987       -0.05001256521996
C           -1.81739470187490       -0.20012724136556       -0.04692818139228
O           -2.99983858926755       -0.37846413507442       -0.07008877579474
N           -0.92618577614240       -1.30210203518959       -0.03682761236648
C           -1.46982251276835       -2.64643077634382       -0.06029819901142
H            3.71247229913541        1.21471443890471        1.06488839270555
H            4.00791460421487        1.03430799217987       -0.67357688121503
H            2.69909982127087        2.09770098766290       -0.09130154035862
H            3.56654087521359       -1.63682977417947        0.04233139674524
H           -1.67107945562430        3.09322822573871       -0.02552706696334
H           -2.82428927394145        2.09428605349656       -0.95318074103337
H           -2.87644002486466        2.07745706351925        0.81450059976605
H           -1.17061985538665       -3.19584861009707        0.83242224714061
H           -1.14560246782873       -3.17511580834413       -0.95688266944647
H           -2.55549768731684       -2.55659960601237       -0.07459039105944
H            1.38130842369251       -2.94313824728853       -0.01389874052104
25
 energy: -4.057304808735 xtb: 6.6.1 (8d0f1dd)
C            3.22961910958343        1.17707354550088        0.10107679045163
N            2.30938076467226        0.08724320583254       -0.00139325134028
C            2.60276438545663       -1.24030864611681       -0.01376263400178
N            1.43127356994667       -1.94845053142374       -0.03358131439798
C            0.40056517656653       -1.06344715277614       -0.02985185461491
C            0.93471587360900        0.21411290654779       -0.02208474748050
C            0.11302776747999        1.39121512201196       -0.02571145187420
O            0.51508918182885        2.55459435910249       -0.02763119773671
N           -1.24914425546740        1.05148103658041       -0.03248510968326
C           -2.20527941981739        2.15151959547186       -0.04320434608467
C           -1.81478846304245       -0.19899788101211       -0.03737443441314
O           -3.01174376372739       -0.37765314240703       -0.04279100360755
N           -0.93008619461832       -1.30343723750561       -0.03500776543147
C           -1.47149835803448       -2.64381795103699       -0.04092800454297
H            3.51788067202697        1.31136673633198        1.18393827258864
H            4.07796068772773        1.00900782436295       -0.58116229174612
H            2.70361962310018        2.09293430650450       -0.16041641864209
H            3.58053099514564       -1.66688007177061       -0.01888021131656
H           -1.64288356680933        3.08273993655220       -0.02541810048691
H           -2.81874373456847        2.09754004637992       -0.94195164194563
H           -2.85520653189669        2.08400473606425        0.82843869806048
H           -1.16281941006976       -3.18766233713916        0.85394685647528
H           -1.15093597867933       -3.18265592326972       -0.93455864290590
H           -2.55644025447237       -2.55014014070858       -0.04788289262474
H            1.36535642903201       -2.95235355333321       -0.04428939050411
25
 energy: 1.294861012461 xtb: 6.6.1 (8d0f1dd)
C            3.21071046162938        1.18649681572376        0.13229428856352
N            2.31961516772045        0.09316449556330       -0.07019574963595
C            2.62391019227937       -1.26908847852793       -0.08197095031548
N            1.42262736191639       -1.96097414925291       -0.07925591808968
C            0.41208512186582       -1.07117210588866       -0.06026775477833
C            0.93402557645953        0.21133919999418       -0.07131470527525
C            0.13893810066346        1.36911169049496       -0.05485720121618
O            0.53004636974877        2.55292829413448       -0.06577486710939
N           -1.24609857275897        1.04036810715515       -0.03453014765029
C           -2.18507754706792        2.15074899557762       -0.03465947524261
C           -1.80426638811614       -0.19618256103937       -0.02339827983925
O           -3.01015297417396       -0.37619807678768       -0.00570425362951
N           -0.93284983170066       -1.30396999269871       -0.03140842100718
C           -1.47218761478219       -2.64024230121330       -0.01356072336536
H            3.24778090741575        1.44233738288981        1.32912262872780
H            4.16876573841226        0.97293841852737       -0.42126675031490
H            2.72097823017495        2.08902245564029       -0.25930739538762
H            3.59202460294381       -1.69877054733423       -0.11301123530960
H           -1.60573288076704        3.07339476741751       -0.02360956529358
H           -2.80969400010173        2.10611171105768       -0.92695604946217
H           -2.82568260800108        2.09310399702573        0.84506505165822
H           -1.14997058241422       -3.17730853378082        0.88286053095309
H           -1.16245851410139       -3.19312924041059       -0.90445041960040
H           -2.55657061210209       -2.54329304963521       -0.00624456477282
H            1.35144859983006       -2.96170850588846       -0.08056416041256
25
 energy: 7.415522781753 xtb: 6.6.1 (8d0f1dd)
C            3.17480865949070        1.19574909459808        0.17696974966143
N            2.32552766517720        0.09135548286460       -0.12830888840957
C            2.63451409434571       -1.28589933125692       -0.14598797038119
N            1.42241001424892       -1.97005992844297       -0.12518675659548
C            0.41946822458965       -1.08108618767984       -0.08637848360709
C            0.93641450583808        0.20392824688538       -0.10844704915105
C            0.15718294617491        1.35874907342257       -0.08154723474709
O            0.53879599459810        2.54786858413919       -0.10265517167940
N           -1.24012787862286        1.03712950184611       -0.03915080816456
C           -2.16602635508651        2.15402911075531       -0.03383725347150
C           -1.79419976767109       -0.19549937868875       -0.00946625590350
O           -3.00229109809785       -0.37657311867490        0.02748692432192
N           -0.93041010925415       -1.30612722081275       -0.02736614061931
C           -1.47164701415561       -2.63952101384678        0.01568354501701
H            3.04307475946692        1.52068338727690        1.41669566348531
H            4.20222579096476        0.95830503009350       -0.25861363458491
H            2.75012306930503        2.09042961574249       -0.31320674132295
H            3.59922845607101       -1.71959443930016       -0.20810149583860
H           -1.57252825250129        3.06830541151273       -0.03333443658210
H           -2.79953996333882        2.11193905487498       -0.91991006269681
H           -2.79707773821736        2.10673152879543        0.85354412680823
H           -1.14305598776064       -3.16433738848178        0.91779979493990
H           -1.16990534584693       -3.20758882750304       -0.86898206215712
H           -2.55569180761624       -2.53874845328316        0.03084696281601
H            1.35094144287095       -2.97113904609217       -0.12151240894304
25
 energy: 7.902023344004 xtb: 6.6.1 (8d0f1dd)
C            3.14121233075659        1.19797210001008        0.21353112619522
N            2.33070548838687        0.08858479087575       -0.16629124286282
C            2.63701231812894       -1.28852848321708       -0.18736362388961
N            1.42796714979729       -1.97273955162668       -0.15868886538072
C            0.42279503341293       -1.08786567708460       -0.10370283437997
C            0.94159863500956        0.19656468537126       -0.12846403078170
C            0.16672751936480        1.35800230447049       -0.10142955260217
O            0.54138050432481        2.54107477381425       -0.13097253001657
N           -1.23262873877219        1.03856741947789       -0.04580890822196
C           -2.15223909692589        2.15808237336080       -0.03845701945355
C           -1.78627024938492       -0.19617940640402       -0.00048824329852
O           -2.99163931420487       -0.37676036997259        0.05052330080375
N           -0.92451742081421       -1.30793374630538       -0.02539374401683
C           -1.46953354885166       -2.64004936776955        0.03925624745977
H            2.91932903552208        1.54319409663599        1.44558720455454
H            4.18255685140886        0.96107248681779       -0.14151448566508
H            2.78361318240172        2.08659728082697       -0.31071065547358
H            3.60040389316170       -1.72673074251405       -0.28287150855248
H           -1.55140708508477        3.06701185740589       -0.04746126983547
H           -2.79194161467498        2.11548491647354       -0.91958550312468
H           -2.77597378904905        2.11904445758621        0.85414503169047
H           -1.14010329733638       -3.15206893701885        0.94810068157709
H           -1.17239414286838       -3.22104457510712       -0.83790792073343
H           -2.55343849858447       -2.53661112511616        0.05666174714343
H            1.35899915984823       -2.97571277224683       -0.15365948894053
25
 energy: 4.816144268959 xtb: 6.6.1 (8d0f1dd)
C            3.11992976740010        1.19512851263940        0.23443148697730
N            2.33440899313857        0.08989595798987       -0.18949272558921
C            2.63284185390590       -1.27755838591725       -0.19613142499188
N            1.43500253759778       -1.96821239943355       -0.17402660252072
C            0.42153649204337       -1.08910163510716       -0.11391294308342
C            0.94589839687087        0.19296325527809       -0.13831410066917
C            0.16755337455567        1.36262594607989       -0.11327305989357
O            0.53807043776381        2.53552718007255       -0.14548126480404
N           -1.22701242438961        1.04078569023443       -0.04934775126070
C           -2.14765117282135        2.15955058816778       -0.03816203007495
C           -1.78317232023668       -0.19797185622488        0.00336921890776
O           -2.98391924709337       -0.37637530578859        0.06569896629173
N           -0.91903504134241       -1.30869235606813       -0.02710711508054
C           -1.46675972867029       -2.64088322420144        0.04931193550355
H            2.85208468425364        1.53932929451253        1.42612133853188
H            4.17000301305848        0.94528426977822       -0.04065229767924
H            2.82377221454782        2.08124639297320       -0.32865230727143
H            3.59432756019680       -1.71931988652692       -0.32310095070445
H           -1.54757128999688        3.06769459365329       -0.05197458818989
H           -2.79152706246711        2.11678795327281       -0.91585367130531
H           -2.76651347369652        2.12301529767297        0.85718898309725
H           -1.13844928600195       -3.14496848965914        0.96191386532181
H           -1.17109572371395       -3.22754722464283       -0.82287389513695
H           -2.55073460743983       -2.53702069095818        0.06593427907239
H            1.37022635750973       -2.97315468905289       -0.16857943325366
25
 energy: 0.818042943638 xtb: 6.6.1 (8d0f1dd)
C            3.11379421104329        1.19378565872646        0.24519628295477
N            2.33717974128043        0.09178823964028       -0.20725335047859
C            2.62904788778582       -1.26646391135628       -0.18946295237019
N            1.43902474911657       -1.96366858777946       -0.17436602335748
C            0.41899363076159       -1.08765022932909       -0.11919291951972
C            0.94782065522969        0.19198052734065       -0.14367248411487
C            0.16588689066746        1.36475098953296       -0.11807304115157
O            0.53660838611501        2.53233053397420       -0.15348573813547
N           -1.22386695043537        1.04067831627748       -0.04906216499440
C           -2.14793959502456        2.15855605607340       -0.03695232051265
C           -1.78368462905857       -0.19940042928647        0.00467510552805
O           -2.98139976820036       -0.37463192166021        0.07440246125552
N           -0.91735081624078       -1.30879131100914       -0.02816311115873
C           -1.46599471399835       -2.64139247291282        0.05063865750013
H            2.83073924115729        1.52722817051176        1.38119064176808
H            4.16352923786195        0.93998199207847        0.02681252667205
H            2.85531689695362        2.07371075138651       -0.33319316690828
H            3.58730241520695       -1.71023531743333       -0.34121984358229
H           -1.55149303628954        3.06881679446221       -0.05207562622169
H           -2.79317961601368        2.11516349703552       -0.91357891167359
H           -2.76563083802478        2.12154438881836        0.85880477832298
H           -1.13830185383177       -3.14311482587482        0.96403881343758
H           -1.17042464972697       -3.22879099948310       -0.82023294514173
H           -2.55007691373104       -2.53789161487910        0.06670342696839
H            1.37631374236870       -2.96925550611041       -0.16544418289176
25
 energy: -0.131440727859 xtb: 6.6.1 (8d0f1dd)
C            3.11875095708262        1.19379129578382        0.24492698639305
N            2.33852657042373        0.09377511344256       -0.21801837618620
C            2.62896191804607       -1.26294110803108       -0.17609746059504
N            1.43952770470070       -1.96206346955298       -0.16788942961017
C            0.41870317439596       -1.08543776537468       -0.12024687128252
C            0.94777795329014        0.19397772683844       -0.14756547911717
C            0.16427884014459        1.36512347944025       -0.11773626268625
O            0.53598598523467        2.53398902745967       -0.15099679507070
N           -1.22429257275088        1.04028126818784       -0.04551105675865
C           -2.15080730923741        2.15736145845052       -0.03249432805490
C           -1.78470370726294       -0.19940519437570        0.00532245903320
O           -2.98223646282909       -0.37402019838087        0.07645794626167
N           -0.91770456409749       -1.30809666236647       -0.02794758357167
C           -1.46558697624669       -2.64114762888722        0.04639071142875
H            2.81031780999243        1.53136444222551        1.35943782116714
H            4.17613912125970        0.92538274858226        0.05886525689619
H            2.87646440559118        2.07035225786809       -0.36206251528271
H            3.58455573585159       -1.70701495491126       -0.34230149664800
H           -1.55702679386598        3.06964820353262       -0.04606227807153
H           -2.79564334204898        2.11381249655006       -0.90953506060279
H           -2.76906458341467        2.11754569867992        0.86278152991549
H           -1.13783532087466       -3.14568758083559        0.95814989344278
H           -1.16986396575698       -3.22600663291019       -0.82628045533156
H           -2.54973436053985       -2.53839033039339        0.06275000644875
H            1.37672408788486       -2.96716490227806       -0.15730324992264
25
 energy: -0.742947961898 xtb: 6.6.1 (8d0f1dd)
C            3.12592302018741        1.19490617653721        0.24266288338990
N            2.33969745315445        0.09332760434085       -0.22054744149271
C            2.63086013423183       -1.26423688003015       -0.16191615533345
N            1.43908564365671       -1.96292370614595       -0.15998290987402
C            0.41982276832931       -1.08411281345727       -0.11859892495192
C            0.94812987072628        0.19534898843728       -0.14796421704964
C            0.16425117791572        1.36392534454823       -0.11617954268251
O            0.53802640990493        2.53491930974867       -0.14622074024636
N           -1.22426366335837        1.03995443334921       -0.04313500941976
C           -2.15175469446931        2.15696731088019       -0.03141792584641
C           -1.78476200445940       -0.19878000496509        0.00505161432816
O           -2.98297029097849       -0.37336571196012        0.07391185727398
N           -0.91810572608949       -1.30741154738506       -0.02639058018434
C           -1.46572058148379       -2.64062769396852        0.04283104969861
H            2.80609536238515        1.53612601393523        1.34188351859906
H            4.17187717844813        0.92750808772247        0.05660954947515
H            2.88083620733158        2.06416855548213       -0.36153163391310
H            3.58412524407567       -1.70828518546756       -0.34250163039741
H           -1.55876673083776        3.07025670316168       -0.04328079415267
H           -2.79517910627358        2.11286499602252       -0.90960812791245
H           -2.77168564291529        2.11542123608219        0.86288590292439
H           -1.13822380226843       -3.14846848243866        0.95317750424974
H           -1.16988200499931       -3.22329795505899       -0.83188186115446
H           -2.54989107120472       -2.53787799692164        0.05953641060431
H            1.37468915396343       -2.96727799370479       -0.15035888373751
25
 energy: -0.465480438623 xtb: 6.6.1 (8d0f1dd)
C            3.12787462293470        1.19649426730296        0.23971357918428
N            2.33871124644429        0.09265157954689       -0.21743449512156
C            2.63202594142545       -1.26642162267381       -0.15430352952216
N            1.43839944253005       -1.96399258463874       -0.15762324458304
C            0.42056473657876       -1.08411685721008       -0.11751800469470
C            0.94772031168557        0.19571771213267       -0.14793224715874
C            0.16388062106418        1.36361558752727       -0.11498833195485
O            0.53852003176780        2.53536509192798       -0.14182332535275
N           -1.22481093436562        1.04022685444106       -0.04262285719062
C           -2.15191272380042        2.15727075188614       -0.03109022930538
C           -1.78465260255552       -0.19855723345974        0.00469311290870
O           -2.98361340684402       -0.37395543122615        0.07085344976772
N           -0.91816207416305       -1.30735783426560       -0.02563610319687
C           -1.46572082874513       -2.64062001733253        0.04195070400305
H            2.80350550451714        1.54025502495534        1.34140764578421
H            4.17634711357185        0.92638518003693        0.05012288776975
H            2.87919235587980        2.06500399337416       -0.36452765732845
H            3.58434164259798       -1.70962786229864       -0.34399051122431
H           -1.55824374114002        3.07015817800849       -0.04216500152392
H           -2.79480892944131        2.11317886805727       -0.90968997480006
H           -2.77231157237305        2.11531919645105        0.86301403696665
H           -1.13802780274804       -3.14968520067945        0.95180735849414
H           -1.16993401796385       -3.22238261645958       -0.83361627962995
H           -2.54988566956568       -2.53775659148321        0.05899965349965
H            1.37321503768074       -2.96813964517660       -0.15056672359620
25
 energy: -0.463827716715 xtb: 6.6.1 (8d0f1dd)
C            3.12824727303729        1.19830004806748        0.24019708591539
N            2.33738459479259        0.09143518843751       -0.21090795415402
C            2.63327493900200       -1.26849241969681       -0.14462533413696
N            1.43796304284882       -1.96496912143304       -0.15649873338208
C            0.42114098690862       -1.08451247269184       -0.11724366879812
C            0.94751111998357        0.19543366904276       -0.14713282122491
C            0.16344418654436        1.36342367169807       -0.11370316807269
O            0.53909989033766        2.53517969850540       -0.13818554617174
N           -1.22496834249649        1.04053046217814       -0.04280646352119
C           -2.15156149860326        2.15764947282393       -0.03147965790800
C           -1.78437811612897       -0.19855623046673        0.00395416981655
O           -2.98392570555083       -0.37455866985101        0.06768053447102
N           -0.91789849328636       -1.30750522540851       -0.02545019770136
C           -1.46571232384648       -2.64074633683936        0.04178761262390
H            2.80522813988798        1.54280934265857        1.34104417824343
H            4.17592417467304        0.92668137318713        0.04346296977439
H            2.87695687448421        2.06673132274903       -0.36701248353083
H            3.58364119183440       -1.71021671957751       -0.35013790746827
H           -1.55713290537790        3.06994936815944       -0.04213394144300
H           -2.79418474448128        2.11367577350814       -0.91026821217963
H           -2.77222962330221        2.11586670682088        0.86251404623023
H           -1.13778907298962       -3.15009687819052        0.95155335265427
H           -1.17004004284340       -3.22224422676139       -0.83405183989660
H           -2.54984325980693       -2.53765404667129        0.05909187071596
H            1.37206201935179       -2.96908496150444       -0.15261397866123
25
 energy: -0.531671138825 xtb: 6.6.1 (8d0f1dd)
C            3.12787428765585        1.19941656615853        0.24158757905686
N            2.33678223996237        0.09014022320084       -0.20633351558661
C            2.63461031761866       -1.26989967607506       -0.13532706424831
N            1.43784522100161       -1.96546421914499       -0.15663122803619
C            0.42138620491402       -1.08502666127274       -0.11861446111808
C            0.94784609087854        0.19471792744500       -0.14721528374270
C            0.16328536935625        1.36325527584586       -0.11326478663891
O            0.53963815546522        2.53450014655399       -0.13756561879023
N           -1.22464747980306        1.04071684184730       -0.04343021300516
C           -2.15099245066155        2.15789464487188       -0.03199803808244
C           -1.78398729535343       -0.19863321688118        0.00332940709369
O           -2.98373228695371       -0.37468986958310        0.06641918053679
N           -0.91747820291976       -1.30763467170331       -0.02601844296468
C           -1.46577115111161       -2.64077396973609        0.04231204267561
H            2.80512697425074        1.54371205986499        1.34099643540313
H            4.17709508779595        0.92941073633663        0.04092260562835
H            2.87378643147830        2.06588846984896       -0.36599148585781
H            3.58174024278880       -1.70966261249391       -0.36016160318354
H           -1.55636674080101        3.06993224916803       -0.04287171078862
H           -2.79386645821680        2.11399134326442       -0.91058367102806
H           -2.77154436953429        2.11660167766020        0.86208521049248
H           -1.13757642558522       -3.14948734450047        0.95230398309081
H           -1.17044483806317       -3.22277593784664       -0.83320494764527
H           -2.54985306808481       -2.53743194911922        0.05986160152251
H            1.37145844889474       -2.96966924496589       -0.15357206258905
25
 energy: -0.627233581511 xtb: 6.6.1 (8d0f1dd)
C            3.12697947923713        1.19961677264629        0.24432388939079
N            2.33703163372528        0.08896039306911       -0.20199160937832
C            2.63609910932185       -1.27083127610899       -0.12409968785315
N            1.43789357344841       -1.96556815085891       -0.15728867379868
C            0.42138113421766       -1.08544001283255       -0.12095322142685
C            0.94870171933620        0.19391877756077       -0.14712414512840
C            0.16349371963224        1.36307562690473       -0.11358939262882
O            0.54000213082275        2.53365050274222       -0.13916234496055
N           -1.22388327657185        1.04072928993233       -0.04426490525700
C           -2.15029880772520        2.15789280168083       -0.03225536739988
C           -1.78347791587088       -0.19874631021233        0.00288437495030
O           -2.98304891176309       -0.37436234489374        0.06696673802584
N           -0.91691191751767       -1.30762114478100       -0.02751572222857
C           -1.46567580354553       -2.64063287846410        0.04245591011104
H            2.80450723197290        1.54471019419009        1.34229761643425
H            4.17590813427659        0.93155058403772        0.04021319108090
H            2.87174688384970        2.06410391321807       -0.36626545876552
H            3.57847550810560       -1.70821933753046       -0.37330909935117
H           -1.55599319753766        3.07004614248025       -0.04367467634968
H           -2.79374557396188        2.11400655196127       -0.91040550055094
H           -2.77041876885669        2.11692039475779        0.86207439252641
H           -1.13739343047131       -3.14827232308279        0.95284520469768
H           -1.17067743242982       -3.22353365040197       -0.83235594277474
H           -2.54971184110813       -2.53706455086215        0.06009086022251
H            1.37123092438601       -2.96986117640846       -0.15286251739286
25
 energy: -0.733947854979 xtb: 6.6.1 (8d0f1dd)
C            3.12615582020278        1.19919486099438        0.24539087326029
N            2.33774720669968        0.08873252133845       -0.20163595411731
C            2.63679059736640       -1.27084590767058       -0.11767901808768
N            1.43792663319176       -1.96538747343342       -0.15806897877189
C            0.42111326842409       -1.08544153928597       -0.12265487143770
C            0.94931407508194        0.19363323411393       -0.14747328799503
C            0.16374502052503        1.36302411385521       -0.11468996773537
O            0.53979224576460        2.53333442215620       -0.14168906768400
N           -1.22335261463664        1.04059755795449       -0.04482975832672
C           -2.15008491533720        2.15769248698655       -0.03220086761156
C           -1.78335275653175       -0.19884226171785        0.00291869902588
O           -2.98258698557945       -0.37392331419321        0.06896456030161
N           -0.91669340833088       -1.30749893187916       -0.02886467818673
C           -1.46554688735187       -2.64049684736155        0.04220689492759
H            2.80474430870652        1.54420439934991        1.34319273298708
H            4.17551844085499        0.93233393042509        0.04170179293355
H            2.87154229184860        2.06308340786208       -0.36510529639621
H            3.57562973238376       -1.70678684012967       -0.38102333155414
H           -1.55626867347125        3.07020030126581       -0.04401413966332
H           -2.79392377399830        2.11368861544297       -0.91005850218551
H           -2.76978832029056        2.11654196686039        0.86236041155602
H           -1.13733583614022       -3.14743390755372        0.95291134710437
H           -1.17062922579648       -3.22399870111961       -0.83210626972750
H           -2.54959392992336       -2.53691015551488        0.05981778833420
H            1.37135199131045       -2.96966715000178       -0.15033719875540
25
 energy: -0.779860707900 xtb: 6.6.1 (8d0f1dd)
C            3.12590024702094        1.19866096932780        0.24523877541648
N            2.33837190677124        0.08902396974116       -0.20319520520660
C            2.63700483537492       -1.27063369056475       -0.11453212538425
N            1.43784871482570       -1.96524539464160       -0.15834514473503
C            0.42094657774655       -1.08517890364574       -0.12305806698084
C            0.94955334924183        0.19374605438727       -0.14783235728792
C            0.16388742746362        1.36304037196495       -0.11550042381727
O            0.53940569171646        2.53342319805700       -0.14295230326435
N           -1.22316504158514        1.04050179522499       -0.04498625903995
C           -2.15022094881859        2.15751359117399       -0.03206898728402
C           -1.78341910377574       -0.19886621463212        0.00311454728265
O           -2.98241805059059       -0.37367722917616        0.07046378030787
N           -0.91668503790690       -1.30733658222851       -0.02955696261769
C           -1.46539676703296       -2.64040046220953        0.04174883426138
H            2.80544223033987        1.54366659214642        1.34405901273076
H            4.17500665410472        0.93173659979611        0.04312688003112
H            2.87249274489888        2.06312061829112       -0.36474509193678
H            3.57404227855128       -1.70612649292547       -0.38459887209137
H           -1.55676661107902        3.07031314541620       -0.04379904455916
H           -2.79404813722445        2.11344879867503       -0.90993221083521
H           -2.76985075795229        2.11589891447416        0.86249837551477
H           -1.13732275639878       -3.14724593940688        0.95255444133490
H           -1.17035816936759       -3.22399349186027       -0.83244538708876
H           -2.54948171937851       -2.53693483907643        0.05932789600358
H            1.37144474802713       -2.96942658956468       -0.14755018855975
25
 energy: -0.809112438107 xtb: 6.6.1 (8d0f1dd)
C            3.12595747270928        1.19837492816103        0.24404399981761
N            2.33858042461802        0.08955733377803       -0.20574011172376
C            2.63698967543578       -1.27037835952711       -0.11293372686707
N            1.43769631782172       -1.96522844994419       -0.15836610746677
C            0.42097310697775       -1.08481647361795       -0.12251373597850
C            0.94943883696916        0.19402163473097       -0.14841034098709
C            0.16380171580068        1.36312063225878       -0.11592827696138
O            0.53902770280998        2.53366634010460       -0.14266610486526
N           -1.22325796248928        1.04051349826269       -0.04493552331949
C           -2.15053459600764        2.15745433773352       -0.03200836881082
C           -1.78357662021885       -0.19886926511635        0.00322746508143
O           -2.98252165302917       -0.37371766882168        0.07092285741859
N           -0.91675788832889       -1.30721484117104       -0.02969087648253
C           -1.46526459227544       -2.64038656304794        0.04139582192440
H            2.80680551140190        1.54282534312099        1.34450665076779
H            4.17490702154671        0.93055613545554        0.04410989378334
H            2.87341558753935        2.06410040161418       -0.36434270102648
H            3.57338252935491       -1.70604388120547       -0.38568826221748
H           -1.55718711230578        3.07036373602577       -0.04328590494186
H           -2.79403793738435        2.11340471058172       -0.91011026770107
H           -2.77039029174321        2.11532744240041        0.86239883743436
H           -1.13722936961722       -3.14751043579578        0.95214298219049
H           -1.17008480598862       -3.22373332691623       -0.83297444521607
H           -2.54938731056191       -2.53708419862101        0.05905400257376
H            1.37146854193774       -2.96927422169943       -0.14517384423163
