25
 energy: -42.586333042584 xtb: 6.6.1 (8d0f1dd)
C            3.13953706763538        1.20426594340743        0.25143266883708
N            2.33332308142177        0.09585694001190       -0.17759437179645
C            2.63080731702133       -1.26426369572935       -0.16038801941438
N            1.43523490161393       -1.96350093742325       -0.15973246196973
C            0.41825727531298       -1.08443715088378       -0.10885308962363
C            0.94292293388003        0.19769385596156       -0.12005432622683
C            0.15902110577441        1.36369655701948       -0.10137653918443
O            0.53218838200604        2.53692288754676       -0.13816653299430
N           -1.23100931931398        1.03878729476844       -0.04741767076720
C           -2.15496329132346        2.15730454750356       -0.03777185967421
C           -1.79009469501083       -0.19937024439067       -0.00169264229548
O           -2.98935545127474       -0.37844831912138        0.05944843079297
N           -0.92137641804621       -1.30808753711078       -0.03007845745291
C           -1.46979736546944       -2.64106122451962        0.03773517468598
H            2.99199284606925        1.48967047599663        1.34793451903268
H            4.16914802938207        0.96337516602680       -0.02862161960738
H            2.83155151985495        2.07737095310940       -0.32690153520856
H            3.58919971682664       -1.71198462556419       -0.30852409202273
H           -1.55332670697631        3.06474522729492       -0.04536149137211
H           -2.79400422476104        2.11766014445072       -0.91878454945753
H           -2.77835115233791        2.11927841635277        0.85450651212355
H           -1.14210992655055       -3.14932556203774        0.94921695213154
H           -1.17220758538448       -3.22450915734420       -0.83544629501931
H           -2.55429847040696       -2.53750113276160        0.04849020627879
H            1.36827975860441       -2.96814801387762       -0.16660382742667
