25
 energy: 0.000000000000 xtb: 6.6.1 (8d0f1dd)
C            3.23720163006194        1.16630919979326        0.08434469647475
N            2.29877817382611        0.07527477071623        0.03981603040599
C            2.58028210190900       -1.21425402444508        0.03006176031096
N            1.43813958087363       -1.93419271955128        0.00098261760884
C            0.39035688448383       -1.05887472636071       -0.00790371836672
C            0.93510056364412        0.21347819449412        0.01709077491437
C            0.09450143893243        1.40504303904423       -0.00410947031874
O            0.49712751527797        2.54126714362870       -0.00342325688240
N           -1.25076640035757        1.06271879480407       -0.03085478223738
C           -2.21907211982101        2.15522099834493       -0.05001256985998
C           -1.81739487048744       -0.20012725993278       -0.04692818574614
O           -2.99983886758376       -0.37846417018721       -0.07008878229737
N           -0.92618586207120       -1.30210215599479       -0.03682761578324
C           -1.46982264913417       -2.64643102187190       -0.06029820460571
H            3.71247264356769        1.21471455160235        1.06488849150277
H            4.00791497605742        1.03430808813993       -0.67357694370751
H            2.69910007168542        2.09770118228144       -0.09130154882931
H            3.56654120610678       -1.63682992603973        0.04233140067262
H           -1.67107961066214        3.09322851271934       -0.02552706933167
H           -2.82428953597071        2.09428624779827       -0.95318082946668
H           -2.87644029173232        2.07745725625962        0.81450067533302
H           -1.17061996399332       -3.19584890659852        0.83242232437030
H           -1.14560257411436       -3.17511610292205       -0.95688275822323
H           -2.55549792440841       -2.55659984320617       -0.07459039797972
H            1.38130855184625       -2.94313852034425       -0.01389874181052
25
 energy: -4.057283614940 xtb: 6.6.1 (8d0f1dd)
C            3.22961940921801        1.17707365470631        0.10107679982924
N            2.30938097892983        0.08724321392671       -0.00139325146954
C            2.60276462693347       -1.24030876118900       -0.01376263527864
N            1.43127370273603       -1.94845071219526       -0.03358131751356
C            0.40056521372979       -1.06344725143964       -0.02985185738448
C            0.93471596032919        0.21411292641256       -0.02208474952946
C            0.11302777796637        1.39121525108481       -0.02571145425963
O            0.51508922961731        2.55459459611025       -0.02763120030025
N           -1.24914437135934        1.05148113413373       -0.03248511269713
C           -2.20527962441674        2.15151979508353       -0.04320435009304
C           -1.81478863141319       -0.19899789947455       -0.03737443788063
O           -3.01174404314813       -0.37765317744458       -0.04279100757757
N           -0.93008628090899       -1.30343735843469       -0.03500776867939
C           -1.47149849455578       -2.64381819632266       -0.04092800834015
H            3.51788099840561        1.31136685799673        1.18393838243096
H            4.07796106606895        1.00900791797573       -0.58116234566465
H            2.70361987393407        2.09293450068080       -0.16041643352505
H            3.58053132733679       -1.66688022641885       -0.01888021306821
H           -1.64288371923124        3.08274022255976       -0.02541810284513
H           -2.81874399608324        2.09754024098353       -0.94195172933714
H           -2.85520679679437        2.08400492941209        0.82843877492059
H           -1.16281951795273       -3.18766263288111        0.85394693570196
H           -1.15093608545979       -3.18265621854719       -0.93455872961151
H           -2.55644049165139       -2.55014037730309       -0.04788289706717
H            1.36535655570577       -2.95235382724390       -0.04428939461315
25
 energy: 1.294898640423 xtb: 6.6.1 (8d0f1dd)
C            3.21071075950967        1.18649692580345        0.13229430083740
N            2.31961538292753        0.09316450420683       -0.07019575614851
C            2.62391043571805       -1.26908859627023       -0.08197095792050
N            1.42262749390358       -1.96097433118633       -0.07925592544281
C            0.41208516009787       -1.07117220526886       -0.06026776036980
C            0.93402566311568        0.21133921960161       -0.07131471189162
C            0.13893811355373        1.36911181751712       -0.05485720630567
O            0.53004641892492        2.55292853098767       -0.06577487321179
N           -1.24609868836834        1.04036820367745       -0.03453015085390
C           -2.18507774979300        2.15074919511780       -0.03465947845821
C           -1.80426655551068       -0.19618257924061       -0.02339828201007
O           -3.01015325344711       -0.37619811169023       -0.00570425415873
N           -0.93284991824773       -1.30397011367722       -0.03140842392116
C           -1.47218775136743       -2.64024254616723       -0.01356072462348
H            3.24778120873532        1.44233751670564        1.32912275203989
H            4.16876612517810        0.97293850879374       -0.42126678939879
H            2.72097848261932        2.08902264945366       -0.25930741944540
H            3.59202493620130       -1.69877070494117       -0.11301124579445
H           -1.60573302974222        3.07339505255805       -0.02360956748401
H           -2.80969426077689        2.10611190645654       -0.92695613546243
H           -2.82568287015961        2.09310419121777        0.84506513006087
H           -1.14997068910511       -3.17730882856217        0.88286061286230
H           -1.16245862195088       -3.19312953665974       -0.90445050351265
H           -2.55657084929320       -2.54329328559447       -0.00624456535217
H            1.35144872521349       -2.96170878066708       -0.08056416788707
25
 energy: 7.415566657028 xtb: 6.6.1 (8d0f1dd)
C            3.17480895404012        1.19574920553617        0.17696976608016
N            2.32552788093283        0.09135549134029       -0.12830890031369
C            2.63451433876819       -1.28589945055888       -0.14598798392553
N            1.42241014621594       -1.97006011121934       -0.12518676820994
C            0.41946826350668       -1.08108628797984       -0.08637849162103
C            0.93641459271587        0.20392826580524       -0.10844705921245
C            0.15718296075788        1.35874919948332       -0.08154724231280
O            0.53879604458601        2.54786882052295       -0.10265518120345
N           -1.24012799367828        1.03712959806794       -0.03915081179686
C           -2.16602655604407        2.15402931059981       -0.03383725661082
C           -1.79419993413168       -0.19549939682661       -0.00946625678175
O           -3.00229137664160       -0.37657315361225        0.02748692687208
N           -0.93041019557487       -1.30612734199140       -0.02736614315826
C           -1.47164715069070       -2.63952125873379        0.01568354647208
H            3.04307504179446        1.52068352836144        1.41669579492217
H            4.20222618083493        0.95830511900223       -0.25861365857832
H            2.75012332445337        2.09042980968641       -0.31320677038135
H            3.59922878999686       -1.71959459883908       -0.20810151514565
H           -1.57252839839584        3.06830569618110       -0.03333443967477
H           -2.79954022307192        2.11193925081448       -0.91991014804336
H           -2.79707799772202        2.10673172425179        0.85354420599755
H           -1.14305609381002       -3.16433768205971        0.91779988009067
H           -1.16990545438731       -3.20758912509371       -0.86898214277872
H           -2.55569204472582       -2.53874868882079        0.03084696567790
H            1.35094156820733       -2.97113932174573       -0.12151242021660
25
 energy: 7.902063223058 xtb: 6.6.1 (8d0f1dd)
C            3.14121262218905        1.19797221115441        0.21353114600601
N            2.33070570462288        0.08858479909439       -0.16629125829083
C            2.63701256278320       -1.28852860276297       -0.18736364127266
N            1.42796728227989       -1.97273973465166       -0.15868888010341
C            0.42279507263861       -1.08786577801358       -0.10370284400121
C            0.94159872236832        0.19656470360795       -0.12846404270022
C            0.16672753483329        1.35800243046196       -0.10142956201251
O            0.54138055455250        2.54107500956771       -0.13097254216782
N           -1.23262885313186        1.03856751583313       -0.04580891247198
C           -2.15223929660431        2.15808257358134       -0.03845702302148
C           -1.78627041510983       -0.19617942460497       -0.00048824334382
O           -2.99163959176038       -0.37676040492731        0.05052330549115
N           -0.92451750658822       -1.30793386765163       -0.02539374637279
C           -1.46953368519067       -2.64004961270558        0.03925625110185
H            2.91932930636885        1.54319423980901        1.44558733867188
H            4.18255723945420        0.96107257598327       -0.14151449879438
H            2.78361344065718        2.08659747441534       -0.31071068430040
H            3.60040422719660       -1.72673090271506       -0.28287153479647
H           -1.55140722901976        3.06701214195424       -0.04746127423879
H           -2.79194187370312        2.11548511274202       -0.91958558844112
H           -2.77597404659575        2.11904465418493        0.85414511093554
H           -1.14010340311182       -3.15206922945855        0.94810076953909
H           -1.17239425163967       -3.22104487394618       -0.83790799847207
H           -2.55343873548500       -2.53661136045549        0.05666175240034
H            1.35899928593218       -2.97571304832472       -0.15365950319661
25
 energy: 4.816176695744 xtb: 6.6.1 (8d0f1dd)
C            3.11993005685802        1.19512862351991        0.23443150872716
N            2.33440920971818        0.08989596633015       -0.18949274316979
C            2.63284209817323       -1.27755850444537       -0.19613144318838
N            1.43500267073310       -1.96821258203852       -0.17402661866640
C            0.42153653115229       -1.08910173615081       -0.11391295365193
C            0.94589848462855        0.19296327318065       -0.13831411350155
C            0.16755339010078        1.36262607250032       -0.11327307040271
O            0.53807048768440        2.53552741531132       -0.14548127830136
N           -1.22701253822822        1.04078578679547       -0.04934775583904
C           -2.14765137207412        2.15955078852454       -0.03816203361551
C           -1.78317248567417       -0.19797187459213        0.00336921922035
O           -2.98391952393263       -0.37637534070759        0.06569897238709
N           -0.91903512660778       -1.30869247748476       -0.02710711759546
C           -1.46675986475195       -2.64088346921483        0.04931194007857
H            2.85208494886168        1.53932943732698        1.42612147084323
H            4.17000339993911        0.94528435747892       -0.04065230145084
H            2.82377247652911        2.08124658606513       -0.32865233776283
H            3.59432789366796       -1.71932004604037       -0.32310098068081
H           -1.54757143357600        3.06769487826499       -0.05197459301194
H           -2.79152732145679        2.11678814966218       -0.91585375627552
H           -2.76651373036552        2.12301549464009        0.85718906262473
H           -1.13844939162393       -3.14496878144008        0.96191395456535
H           -1.17109583236477       -3.22754752408518       -0.82287397148077
H           -2.55073484408950       -2.53702092633551        0.06593428518958
H            1.37022648463531       -2.97315496489345       -0.16857944889396
25
 energy: 0.818068594431 xtb: 6.6.1 (8d0f1dd)
C            3.11379449993197        1.19378576948239        0.24519630570336
N            2.33717995811710        0.09178824815612       -0.20725336970695
C            2.62904813170116       -1.26646402885508       -0.18946296994801
N            1.43902488262506       -1.96366876996286       -0.17436603953465
C            0.41899366963459       -1.08765033023808       -0.11919293057809
C            0.94782074316571        0.19198054515204       -0.14367249744438
C            0.16588690605796        1.36475111615055       -0.11807305210604
O            0.53660843589996        2.53233076891639       -0.15348575237543
N           -1.22386706398215        1.04067841282856       -0.04906216954624
C           -2.14793979430409        2.15855625633789       -0.03695232394098
C           -1.78368479454359       -0.19940044778626        0.00467510596179
O           -2.98140004480587       -0.37463195641746        0.07440246815836
N           -0.91735090134989       -1.30879143243495       -0.02816311377162
C           -1.46599485000903       -2.64139271797346        0.05063866219824
H            2.83073950378496        1.52722831220350        1.38119076991089
H            4.16352962414197        0.93998207928724        0.02681252915964
H            2.85531716186154        2.07371094377930       -0.33319319782096
H            3.58730274802633       -1.71023547610394       -0.34121987523966
H           -1.55149318023251        3.06881707917802       -0.05207563105311
H           -2.79317987515668        2.11516369327418       -0.91357899643276
H           -2.76563109461189        2.12154458564902        0.85880485800037
H           -1.13830195944007       -3.14311511748378        0.96403890287827
H           -1.17042475831553       -3.22879129904085       -0.82023302124053
H           -2.55007715031969       -2.53789185033723        0.06670343315694
H            1.37631387005905       -2.96925578158922       -0.16544419824119
25
 energy: -0.131413904391 xtb: 6.6.1 (8d0f1dd)
C            3.11875124643117        1.19379140654027        0.24492700911666
N            2.33852678738536        0.09377512214274       -0.21801839641330
C            2.62896216195344       -1.26294122520305       -0.17609747693285
N            1.43952783825585       -1.96206365158747       -0.16788944518646
C            0.41870321324201       -1.08543786607841       -0.12024688243867
C            0.94777804122220        0.19397774483512       -0.14756549280786
C            0.16427885538590        1.36512360609240       -0.11773627360947
O            0.53598603496188        2.53398926255573       -0.15099680907974
N           -1.22429268633715        1.04028136470208       -0.04551106098103
C           -2.15080750878300        2.15736165860418       -0.03249433106963
C           -1.78470387284251       -0.19940521287593        0.00532245952700
O           -2.98223673951223       -0.37402023308137        0.07645795335521
N           -0.91770464923942       -1.30809678372784       -0.02794758616456
C           -1.46558711221955       -2.64114787392514        0.04639071573274
H            2.81031807072546        1.53136458430101        1.35943794729179
H            4.17613950870962        0.92538283443655        0.05886526235754
H            2.87646467246110        2.07035244994929       -0.36206254887381
H            3.58455606841614       -1.70701511328309       -0.34230152840573
H           -1.55702693832235        3.06964848832557       -0.04606228234505
H           -2.79564360142056        2.11381269266338       -0.90953514498678
H           -2.76906484032035        2.11754589513959        0.86278160996183
H           -1.13783542643968       -3.14568787268325        0.95814998233711
H           -1.16986407429352       -3.22600693220961       -0.82628053199143
H           -2.54973459709672       -2.53839056589779        0.06275001227051
H            1.37672421561328       -2.96716517756291       -0.15730326451677
25
 energy: -0.742921435568 xtb: 6.6.1 (8d0f1dd)
C            3.12592331020137        1.19490628739710        0.24266290590345
N            2.33969767022471        0.09332761299951       -0.22054746195445
C            2.63086037831531       -1.26423699732234       -0.16191617035556
N            1.43908577717085       -1.96292388826025       -0.15998292471676
C            0.41982280727923       -1.08411291403807       -0.11859893595518
C            0.94812995869098        0.19534900656119       -0.14796423077733
C            0.16425119315446        1.36392547108922       -0.11617955346131
O            0.53802645982144        2.53491954493104       -0.14622075381229
N           -1.22426377694196        1.03995452983313       -0.04313501342170
C           -2.15175489410279        2.15696751099728       -0.03141792876127
C           -1.78476217004438       -0.19878002340732        0.00505161479683
O           -2.98297056772971       -0.37336574659989        0.07391186413131
N           -0.91810581126864       -1.30741166868286       -0.02639058263278
C           -1.46572071746904       -2.64062793895820        0.04283105367235
H            2.80609562272644        1.53612615645249        1.34188364309507
H            4.17187756550264        0.92750817377395        0.05660955472722
H            2.88083647460710        2.06416874698963       -0.36153166745494
H            3.58412557660028       -1.70828534395724       -0.34250166217371
H           -1.55876687545556        3.07025698801108       -0.04328079816813
H           -2.79517936560209        2.11286519204793       -0.90960821230322
H           -2.77168590006414        2.11542143234476        0.86288598298041
H           -1.13822390786949       -3.14846877454432        0.95317759268275
H           -1.16988211353753       -3.22329825410711       -0.83188193833402
H           -2.54989130777613       -2.53787823237851        0.05953641612792
H            1.37468928150305       -2.96727826900013       -0.15035889768737
25
 energy: -0.465452535417 xtb: 6.6.1 (8d0f1dd)
C            3.12787491312972        1.19649437831018        0.23971360142420
N            2.33871146342305        0.09265158814283       -0.21743451529449
C            2.63202618561709       -1.26642174016869       -0.15430354383799
N            1.43839957598053       -1.96399276685220       -0.15762325920686
C            0.42056477559752       -1.08411695779126       -0.11751801559768
C            0.94772039961228        0.19571773029078       -0.14793226088346
C            0.16388063626854        1.36361571403952       -0.11498834262313
O            0.53852008173011        2.53536532715171       -0.14182333851070
N           -1.22481104799998        1.04022695095025       -0.04262286114504
C           -2.15191292344856        2.15727095203138       -0.03109023218984
C           -1.78465276813035       -0.19855725188130        0.00469311334411
O           -2.98361368365491       -0.37395546592064        0.07085345634129
N           -0.91816215934743       -1.30735795555842       -0.02563610557531
C           -1.46572096473040       -2.64062026232150        0.04195070789511
H            2.80350576461815        1.54025516785568        1.34140777023607
H            4.17634750104107        0.92638526598423        0.05012289242000
H            2.87919262300281        2.06500418495917       -0.36452769114826
H            3.58434197514267       -1.70962802091289       -0.34399054313874
H           -1.55824388570930        3.07015846284875       -0.04216500543587
H           -2.79480918873547        2.11317906411180       -0.90969005919842
H           -2.77231182957998        2.11531939270415        0.86301411703456
H           -1.13802790833092       -3.14968549289799        0.95180744680003
H           -1.16993412650689       -3.22238291542278       -0.83361635697042
H           -2.54988590613658       -2.53775682692881        0.05899965897346
H            1.37321516508360       -2.96813992055188       -0.15056673756534
25
 energy: -0.463799167472 xtb: 6.6.1 (8d0f1dd)
C            3.12824756326689        1.19830015924224        0.24019710820017
N            2.33738481164827        0.09143519692060       -0.21090797372144
C            2.63327518330952       -1.26849253738381       -0.14462534755487
N            1.43796317625881       -1.96496930373710       -0.15649874790157
C            0.42114102598084       -1.08451257330972       -0.11724367967564
C            0.94751120789087        0.19543368717452       -0.14713283487546
C            0.16344420170823        1.36342379819251       -0.11370317862174
O            0.53909994035376        2.53517993371193       -0.13818555899219
N           -1.22496845614546        1.04053055871550       -0.04280646749265
C           -2.15156169821882        2.15764967300431       -0.03147966082859
C           -1.78437828167833       -0.19855624888819        0.00395417018341
O           -2.98392598239069       -0.37455870460146        0.06768054075022
N           -0.91789857844629       -1.30750534671500       -0.02545020006255
C           -1.46571245983096       -2.64074658184005        0.04178761650083
H            2.80522840014881        1.54280948579589        1.34104430266157
H            4.17592456210302        0.92668145916191        0.04346297380676
H            2.87695714139982        2.06673151449429       -0.36701251758117
H            3.58364152431411       -1.71021687824639       -0.35013793995304
H           -1.55713304984412        3.06994965298033       -0.04213394535206
H           -2.79418500371753        2.11367596960877       -0.91026829663164
H           -2.77222988050153        2.11586690312478        0.86251412625175
H           -1.13778917855035       -3.15009717044726        0.95155344093660
H           -1.17004015139628       -3.22224452571175       -0.83405191727748
H           -2.54984349637390       -2.53765428210738        0.05909187619833
H            1.37206214664767       -2.96908523696742       -0.15261399282031
25
 energy: -0.531642518608 xtb: 6.6.1 (8d0f1dd)
C            3.12787457785084        1.19941667743688        0.24158760147065
N            2.33678245676216        0.09014023156379       -0.20633353472963
C            2.63461056205007       -1.26989979389262       -0.13532707680356
N            1.43784535440067       -1.96546440149499       -0.15663124256798
C            0.42138624400899       -1.08502676193833       -0.11861447212278
C            0.94784617881692        0.19471794551036       -0.14721529740090
C            0.16328538450539        1.36325540232468       -0.11326479714728
O            0.53963820553126        2.53450038169747       -0.13756563155316
N           -1.22464759342226        1.04071693840195       -0.04343021703449
C           -2.15099265022431        2.15789484507501       -0.03199804105112
C           -1.78398746086653       -0.19863323530979        0.00332940740258
O           -2.98373256377563       -0.37468990434573        0.06641918669897
N           -0.91747828804069       -1.30763479302181       -0.02601844537859
C           -1.46577128710155       -2.64077421473934        0.04231204660120
H            2.80512723450218        1.54371220308606        1.34099655981684
H            4.17709547533457        0.92941082256463        0.04092260942503
H            2.87378669809977        2.06588866151602       -0.36599151981343
H            3.58174057509214       -1.70966277111139       -0.36016163659828
H           -1.55636688519615        3.06993253398733       -0.04287171476613
H           -2.79386671742353        2.11399153939433       -0.91058375550934
H           -2.77154462667004        2.11660187403229        0.86208529047421
H           -1.13757653112622       -3.14948763670066        0.95230407144278
H           -1.17044494665360       -3.22277623684633       -0.83320502494758
H           -2.54985330465269       -2.53743218453470        0.05986160707629
H            1.37145857613463       -2.96966952048308       -0.15357207683701
25
 energy: -0.627205284243 xtb: 6.6.1 (8d0f1dd)
C            3.12697976934910        1.19961688394321        0.24432391205844
N            2.33703185054821        0.08896040132259       -0.20199162811851
C            2.63609935389138       -1.27083139401298       -0.12409969936675
N            1.43789370685195       -1.96556833321855       -0.15728868839146
C            0.42138117331216       -1.08544011353649       -0.12095323264853
C            0.94870180735396        0.19391879555198       -0.14712415877815
C            0.16349373480071        1.36307575336688       -0.11358940316731
O            0.54000218092256        2.53365073780687       -0.13916235787162
N           -1.22388339012015        1.04072938648814       -0.04426490936377
C           -2.15029900722361        2.15789300188379       -0.03225537039244
C           -1.78347808133672       -0.19874632865143        0.00288437521790
O           -2.98304918852161       -0.37436237962598        0.06696674423882
N           -0.91691200258607       -1.30762126609825       -0.02751572478140
C           -1.46567593952663       -2.64063312345426        0.04245591404997
H            2.80450749216684        1.54471033750377        1.34229774096868
H            4.17590852170508        0.93155067046425        0.04021319481176
H            2.87174715028194        2.06410410471957       -0.36626549274655
H            3.57847584010605       -1.70821949601403       -0.37330913398569
H           -1.55599334189814        3.07004642731012       -0.04367468040169
H           -2.79374583315739        2.11400674809259       -0.91040558501569
H           -2.77041902588801        2.11692059115945        0.86207447250714
H           -1.13739353599533       -3.14827261517025        0.95284529309986
H           -1.17067754104183       -3.22353394947196       -0.83235601999828
H           -2.54971207766291       -2.53706478624355        0.06009086579756
H            1.37123105160479       -2.96986145194346       -0.15286253157500
25
 energy: -0.733919899869 xtb: 6.6.1 (8d0f1dd)
C            3.12615611023834        1.19919497225216        0.24539089602693
N            2.33774742358900        0.08873252957079       -0.20163597282450
C            2.63679084200009       -1.27084602557593       -0.11767902900559
N            1.43792676659837       -1.96538765577630       -0.15806899343707
C            0.42111330749374       -1.08544163999005       -0.12265488281726
C            0.94931416315651        0.19363325207865       -0.14747330167717
C            0.16374503571681        1.36302424031258       -0.11468997837597
O            0.53979229584494        2.53333465719153       -0.14168908082950
N           -1.22335272813570        1.04059765449808       -0.04482976248589
C           -2.15008511481576        2.15769268717092       -0.03220087059906
C           -1.78335292198598       -0.19884228016585        0.00291869929667
O           -2.98258726229511       -0.37392334888472        0.06896456669994
N           -0.91669349337900       -1.30749905318507       -0.02886468086471
C           -1.46554702332101       -2.64049709233909        0.04220689884342
H            2.80474456892246        1.54420454261666        1.34319285760456
H            4.17551882824733        0.93233401692429        0.04170179680252
H            2.87154255826186        2.06308359926890       -0.36510533026961
H            3.57563006412019       -1.70678699848034       -0.38102336690437
H           -1.55626881785729        3.07020058610998       -0.04401414374682
H           -2.79392403321034        2.11368881154479       -0.91005858661807
H           -2.76978857726339        2.11654216322694        0.86236049156329
H           -1.13733594165890       -3.14743419956339        0.95291143551269
H           -1.17062933440402       -3.22399900023274       -0.83210634692788
H           -2.54959416646720       -2.53691039088195        0.05981779388392
H            1.37135211854046       -2.96966742551878       -0.15033721270324
25
 energy: -0.779832830640 xtb: 6.6.1 (8d0f1dd)
C            3.12590053703278        1.19866108053604        0.24523879816901
N            2.33837212371852        0.08902397800054       -0.20319522405845
C            2.63700508002848       -1.27063380845041       -0.11453213601020
N            1.43784884822508       -1.96524557697130       -0.15834515942583
C            0.42094661680074       -1.08517900432545       -0.12305807839781
C            0.94955343733860        0.19374607236246       -0.14783237100337
C            0.16388744266861        1.36304049842383       -0.11550043453306
O            0.53940574176094        2.53342343310056       -0.14295231652704
N           -1.22316515506680        1.04050189175969       -0.04498626321364
C           -2.15022114830977        2.15751379134176       -0.03206899025929
C           -1.78341926923613       -0.19886623308234        0.00311454757161
O           -2.98241832729058       -0.37367726384484        0.07046378684529
N           -0.91668512295425       -1.30733670351936       -0.02955696535990
C           -1.46539690298817       -2.64040070717813        0.04174883813471
H            2.80544249062056        1.54366673536327        1.34405913742861
H            4.17500704144958        0.93173668623990        0.04312688403231
H            2.87249301140032        2.06312080970139       -0.36474512577676
H            3.57404261014043       -1.70612665121488       -0.38459890777332
H           -1.55676675551125        3.07031343027084       -0.04379904862271
H           -2.79404839644803        2.11344899475460       -0.90993229525605
H           -2.76985101493091        2.11589911078105        0.86249845553484
H           -1.13732286191625       -3.14724623139912        0.95255452971010
H           -1.17035827794998       -3.22399379097292       -0.83244546432060
H           -2.54948195591194       -2.53693507444579        0.05932790150785
H            1.37144487526575       -2.96942686505936       -0.14755020224902
25
 energy: -0.809084421886 xtb: 6.6.1 (8d0f1dd)
C            3.12595776272643        1.19837503934274        0.24404402245930
N            2.33858064158464        0.08955734208690       -0.20574013081172
C            2.63698992008794       -1.27037847738908       -0.11293373734473
N            1.43769645120696       -1.96522863227231       -0.15836612215951
C            0.42097314603440       -1.08481657426404       -0.12251374734496
C            0.94943892505531        0.19402165273173       -0.14841035475617
C            0.16380173099772        1.36312075872511       -0.11592828771687
O            0.53902775281939        2.53366657517072       -0.14266611810140
N           -1.22325807597956        1.04051359479848       -0.04493552748848
C           -2.15053479552792        2.15745453789580       -0.03200837178046
C           -1.78357678569385       -0.19886928356686        0.00322746538086
O           -2.98252192973877       -0.37371770349411        0.07092286399860
N           -0.91675797338299       -1.30721496245059       -0.02969087923716
C           -1.46526472821839       -2.64038680801525        0.04139582576498
H            2.80680577180907        1.54282548625979        1.34450677550717
H            4.17490740888232        0.93055622178981        0.04410989787573
H            2.87341585412641        2.06410059311535       -0.36434273482913
H            3.57338286088285       -1.70604403948721       -0.38568829800050
H           -1.55718725677703        3.07036402088510       -0.04328590895780
H           -2.79403819660698        2.11340490665720       -0.91011035213843
H           -2.77039054877189        2.11532763865428        0.86239891744519
H           -1.13722947512602       -3.14751072781255        0.95214307052752
H           -1.17008491454565       -3.22373362600474       -0.83297452249699
H           -2.54938754708658       -2.53708443400423        0.05905400805262
H            1.37146866917856       -2.96927449717997       -0.14517385770043
