25
 energy: 0.000000000000 xtb: 6.6.1 (8d0f1dd)
C            3.23720163006194        1.16630919979326        0.08434469647475
N            2.29877817382611        0.07527477071623        0.03981603040599
C            2.58028210190900       -1.21425402444508        0.03006176031096
N            1.43813958087363       -1.93419271955128        0.00098261760884
C            0.39035688448383       -1.05887472636071       -0.00790371836672
C            0.93510056364412        0.21347819449412        0.01709077491437
C            0.09450143893243        1.40504303904423       -0.00410947031874
O            0.49712751527797        2.54126714362870       -0.00342325688240
N           -1.25076640035757        1.06271879480407       -0.03085478223738
C           -2.21907211982101        2.15522099834493       -0.05001256985998
C           -1.81739487048744       -0.20012725993278       -0.04692818574614
O           -2.99983886758376       -0.37846417018721       -0.07008878229737
N           -0.92618586207120       -1.30210215599479       -0.03682761578324
C           -1.46982264913417       -2.64643102187190       -0.06029820460571
H            3.71247264356769        1.21471455160235        1.06488849150277
H            4.00791497605742        1.03430808813993       -0.67357694370751
H            2.69910007168542        2.09770118228144       -0.09130154882931
H            3.56654120610678       -1.63682992603973        0.04233140067262
H           -1.67107961066214        3.09322851271934       -0.02552706933167
H           -2.82428953597071        2.09428624779827       -0.95318082946668
H           -2.87644029173232        2.07745725625962        0.81450067533302
H           -1.17061996399332       -3.19584890659852        0.83242232437030
H           -1.14560257411436       -3.17511610292205       -0.95688275822323
H           -2.55549792440841       -2.55659984320617       -0.07459039797972
H            1.38130855184625       -2.94313852034425       -0.01389874181052
25
 energy: -3.666297729058 xtb: 6.6.1 (8d0f1dd)
C            3.22911877065088        1.17622898111777        0.10087612478218
N            2.30952416241444        0.08642118971173       -0.00481250472438
C            2.60288790062994       -1.24087646905645       -0.01728321011494
N            1.43166866292478       -1.94910369745277       -0.03564014194955
C            0.40098879190232       -1.06404732503102       -0.03081565633091
C            0.93516105440881        0.21341284740867       -0.02421546076437
C            0.11399097936488        1.39085704359361       -0.02652327348871
O            0.51649910114172        2.55389467455008       -0.02882854181716
N           -1.24810127358601        1.05177678590376       -0.03229248172050
C           -2.20413119328466        2.15203734356154       -0.04277198057317
C           -1.81371915770912       -0.19873594473456       -0.03648998394634
O           -3.01060046657712       -0.37712453526168       -0.04108862418224
N           -0.92955345010492       -1.30361126954514       -0.03448336337983
C           -1.47133648445414       -2.64385641246400       -0.03967497595760
H            3.49967338239425        1.31938656297449        1.19426990855935
H            4.08198638948489        1.00522591868730       -0.57713146635469
H            2.70564190060412        2.09209134104217       -0.16459835355967
H            3.58054532281137       -1.66723965824614       -0.02380025014996
H           -1.64231195351538        3.08363907140699       -0.02538289748494
H           -2.81803985289888        2.09776612617781       -0.94117928146185
H           -2.85372785432110        2.08446043111287        0.82908075990823
H           -1.16264668559788       -3.18738408165257        0.85536646506406
H           -1.15125689770821       -3.18313109442556       -0.93320092160009
H           -2.55624002276704       -2.55003837843248       -0.04637862325952
H            1.36619354172830       -2.95302084877443       -0.04596736934612
25
 energy: 2.948080204480 xtb: 6.6.1 (8d0f1dd)
C            3.20986201827509        1.18417594593410        0.13143496903018
N            2.31996470879140        0.09131984675411       -0.07615599935251
C            2.62386883910516       -1.26978118964179       -0.08772659982398
N            1.42362176221403       -1.96212289675517       -0.08116481318149
C            0.41282862727220       -1.07228504680760       -0.06103097478386
C            0.93502511566654        0.21000147676906       -0.07355582956005
C            0.14065951777138        1.36898049743103       -0.05646974454550
O            0.53298068227395        2.55177509903826       -0.06852219376052
N           -1.24390376607269        1.04143507760313       -0.03489902712725
C           -2.18325167631220        2.15181564289501       -0.03420515982615
C           -1.80215703033267       -0.19549623659771       -0.02275913225165
O           -3.00780364269829       -0.37489359050934       -0.00443063937161
N           -0.93168853671871       -1.30422740279889       -0.03040320228215
C           -1.47174580659205       -2.64032655300555       -0.01180452523052
H            3.21872802041122        1.45370789990781        1.34449981804057
H            4.16977197970350        0.96728200862917       -0.41997385358319
H            2.72589960332310        2.08821076345356       -0.26012591462119
H            3.59189627752476       -1.69894533599105       -0.11977428803437
H           -1.60579031579365        3.07557481017299       -0.02244051362630
H           -2.80817199801755        2.10725911801764       -0.92626091930207
H           -2.82366793176645        2.09259273938034        0.84546054280916
H           -1.14810256792711       -3.17753675956984        0.88396890932628
H           -1.16425574488628       -3.19311810916952       -0.90349271851887
H           -2.55610483861100       -2.54336183901527       -0.00224132618521
H            1.35375137133261       -2.96300736395248       -0.08089296809048
25
 energy: 10.736574944329 xtb: 6.6.1 (8d0f1dd)
C            3.17271038936666        1.19243443579313        0.17510429217934
N            2.32652412054786        0.08915122690009       -0.13750062380844
C            2.63476643008076       -1.28695403717269       -0.15434358030648
N            1.42383494194498       -1.97165469068271       -0.12842091796221
C            0.42066953515227       -1.08260975315683       -0.08702404009620
C            0.93804231187164        0.20212477011447       -0.11142936922227
C            0.16001912041371        1.35861655162730       -0.08321181500256
O            0.54314161446326        2.54642347343258       -0.10512329860896
N           -1.23677324105425        1.03856202205270       -0.03892883701345
C           -2.16331046039260        2.15521287466479       -0.03294467408237
C           -1.79119136455164       -0.19448959221254       -0.00793109658547
O           -2.99908600122474       -0.37453618611593        0.02991636741920
N           -0.92874484844116       -1.30634846170015       -0.02545085990270
C           -1.47105215249347       -2.63942321984504        0.01803437824396
H            2.99895319715650        1.53908942189020        1.44053814331401
H            4.20360536910883        0.94814282950373       -0.25599686076604
H            2.75812720914911        2.08914668967623       -0.31815452022290
H            3.59937193324606       -1.72040219368014       -0.21760785038613
H           -1.57234690590305        3.07103610786361       -0.03234696622375
H           -2.79723366981616        2.11247555322608       -0.91864884252677
H           -2.79410513303347        2.10632859578211        0.85447012860856
H           -1.14182627510699       -3.16436477352965        0.91970873224380
H           -1.17099922180843       -3.20752718735963       -0.86711751111776
H           -2.55498927473194       -2.53845316203502        0.03448562849027
H            1.35410704399263       -2.97295269286466       -0.12304211051744
25
 energy: 13.039487600458 xtb: 6.6.1 (8d0f1dd)
C            3.14040111581419        1.19235785024333        0.20652343441599
N            2.33271382249948        0.08646167310920       -0.17694896574201
C            2.63739016617873       -1.28953516245674       -0.19610118221850
N            1.42950359755297       -1.97438043780199       -0.16176174952838
C            0.42427900780774       -1.08919079475056       -0.10380039271864
C            0.94392719793437        0.19474518989308       -0.13185745236343
C            0.17014309479242        1.35791950161155       -0.10240606443617
O            0.54635823833456        2.53942367462650       -0.13238200747904
N           -1.22836399308903        1.04006550248022       -0.04459111896824
C           -2.14918523549084        2.15905555967367       -0.03683587621053
C           -1.78279049734547       -0.19499420587852        0.00166880477779
O           -2.98798387473172       -0.37404010913885        0.05349817629797
N           -0.92251809577325       -1.30792291545703       -0.02284716814995
C           -1.46887483689909       -2.63968176862863        0.04114667329598
H            2.86378804418711        1.56897040082716        1.47853471725359
H            4.18581991916446        0.94745576530695       -0.14392561949165
H            2.79371392908873        2.08272824602806       -0.31791150380881
H            3.60044916436557       -1.72796519499185       -0.29197436842873
H           -1.55163869077197        3.07006682139227       -0.04614737218713
H           -2.78944733349205        2.11510573678101       -0.91750842432464
H           -2.77272679207291        2.11853123808309        0.85580250066522
H           -1.14012853603171       -3.15221052204516        0.94976520417432
H           -1.17220069798379       -3.22046732990802       -0.83623076653644
H           -2.55265126815247       -2.53593973304754        0.05827139030090
H            1.36223722205032       -2.97753038377914       -0.15494697244223
25
 energy: 11.554653352993 xtb: 6.6.1 (8d0f1dd)
C            3.12494092158902        1.18736112904247        0.21729058008809
N            2.33652113642323        0.08800417088293       -0.19551066425308
C            2.63330051921605       -1.27938708049903       -0.20095725295624
N            1.43532395708520       -1.97014467278809       -0.17300630459397
C            0.42301864371652       -1.08956618745912       -0.11184891194271
C            0.94795396077624        0.19204922389701       -0.14039822508820
C            0.17040956095477        1.36234303669626       -0.11151052326410
O            0.54305718538891        2.53479225798730       -0.14345975377856
N           -1.22328449622473        1.04191416481573       -0.04631361374290
C           -2.14592757242261        2.15978331400631       -0.03498997282923
C           -1.78041588122177       -0.19665377150932        0.00513876605467
O           -2.98157247210281       -0.37338812375882        0.06627439389660
N           -0.91777157441875       -1.30828282400257       -0.02438635404480
C           -1.46648102556802       -2.64023418422068        0.04766423672592
H            2.80292096474313        1.57300099965015        1.46848514183378
H            4.17808984845805        0.92796783330073       -0.06337042055966
H            2.83133743370017        2.07689028306298       -0.33994337443505
H            3.59455053735073       -1.72140715668830       -0.32199481531528
H           -1.54987992339976        3.07067257092768       -0.04810138233710
H           -2.78975903440239        2.11534910687563       -0.91274955708379
H           -2.76541377365894        2.12081092479656        0.85989091477724
H           -1.13969979450912       -3.14694179613111        0.95927784254158
H           -1.16995000486718       -3.22478386527967       -0.82572864558142
H           -2.55037664489908       -2.53621219172462        0.06294135138019
H            1.37132219622951       -2.97490855970838       -0.16565955934472
25
 energy: 7.340708430446 xtb: 6.6.1 (8d0f1dd)
C            3.11841817092916        1.18624041817692        0.22494550879700
N            2.33899276909272        0.08895979207006       -0.20875176877207
C            2.62939443039117       -1.26950497112887       -0.19657249613774
N            1.43898031143863       -1.96669565989911       -0.17371763357459
C            0.42037122994368       -1.08869340483013       -0.11648975657090
C            0.94986923861622        0.19022170921441       -0.14476502299583
C            0.16895688968638        1.36427899389018       -0.11574883140326
O            0.54229144288821        2.53080266358791       -0.15183098397850
N           -1.21963994720954        1.04171447437562       -0.04616193216996
C           -2.14532654067250        2.15891639201007       -0.03508519832220
C           -1.78102002525110       -0.19832735900474        0.00632504464065
O           -2.97918006226116       -0.37149290015447        0.07350069198752
N           -0.91624301512251       -1.30862729114442       -0.02494456244254
C           -1.46625676590392       -2.64098704898281        0.04929604946488
H            2.79424989942077        1.56172582451056        1.43042641151805
H            4.16462421770728        0.92914484728403       -0.00946054788425
H            2.85596270019315        2.07137541310909       -0.33386837569400
H            3.58807962750648       -1.71436086686862       -0.33814313049988
H           -1.55207135151652        3.07138241309273       -0.04957973577494
H           -2.78992854838306        2.11349968070130       -0.91215479686406
H           -2.76411936067190        2.12011124320630        0.85991174779358
H           -1.14020893469697       -3.14544363367326        0.96179853856628
H           -1.16984334985878       -3.22616442374736       -0.82293559861669
H           -2.55028347295406       -2.53692698866153        0.06413541585546
H            1.37614511462457       -2.97212071496178       -0.16309514077471
25
 energy: 3.109885002232 xtb: 6.6.1 (8d0f1dd)
C            3.11719621674970        1.18968956096200        0.23080778998158
N            2.33865524271870        0.09196495006893       -0.21879353086003
C            2.62711787330448       -1.26175942976569       -0.18147305984381
N            1.44045564164165       -1.96384681341863       -0.16794979550487
C            0.41823385653968       -1.08641072592894       -0.11890984037384
C            0.94869057280515        0.19151118081789       -0.14852198590608
C            0.16515911840108        1.36566451352877       -0.11616120464501
O            0.54032972494683        2.53155533051881       -0.15092238266088
N           -1.21996491443446        1.04103835720369       -0.04274839970696
C           -2.14874951435932        2.15738544869610       -0.03130038781656
C           -1.78340215502622       -0.19949488834176        0.00638740001782
O           -2.98041087051205       -0.37093711658374        0.07617561423745
N           -0.91677861512254       -1.30851050272753       -0.02516002327817
C           -1.46597416098371       -2.64164493684909        0.04540065520570
H            2.79608524901435        1.55245025300155        1.38622902020222
H            4.17262890121333        0.91455685869469        0.04342119338344
H            2.88003725906155        2.07397843081892       -0.36235701604307
H            3.58307214729990       -1.70814543434584       -0.34000057619733
H           -1.55815764369008        3.07177677670487       -0.04452186918233
H           -2.79263860332948        2.11174684585866       -0.90893352068925
H           -2.76806920860032        2.11616197521783        0.86310400645720
H           -1.13972133130284       -3.14791856245990        0.95657724282817
H           -1.16923739694185       -3.22430021589198       -0.82823867318455
H           -2.55006881303577       -2.53843970140988        0.06050505833876
H            1.37772609157859       -2.96904355219770       -0.15558181861234
25
 energy: 2.013454456678 xtb: 6.6.1 (8d0f1dd)
C            3.12083096928940        1.19289557296299        0.23349194682721
N            2.33902823916932        0.09143602492595       -0.22004254403728
C            2.62977969275475       -1.26469746632703       -0.17443914829780
N            1.43980839120268       -1.96518363172498       -0.16355069025717
C            0.41974577990180       -1.08609041013106       -0.11777066588683
C            0.94853866190370        0.19236513352038       -0.14824095716157
C            0.16588084585776        1.36389444982461       -0.11512287828647
O            0.54238274348372        2.53241392486178       -0.14715094919284
N           -1.22049110538245        1.04076200268718       -0.04165461054901
C           -2.14878578214625        2.15760795564353       -0.03176577300410
C           -1.78295181084498       -0.19873098624795        0.00579415692551
O           -2.98091059891918       -0.37081893012733        0.07309691540164
N           -0.91720907163965       -1.30806779338435       -0.02357279194374
C           -1.46612210813142       -2.64111397838430        0.04415146613376
H            2.79950684523405        1.55168499127237        1.37245235863438
H            4.16678963489784        0.92260873022358        0.03823491693479
H            2.87459782107092        2.06933063708169       -0.35638462741984
H            3.58433267604281       -1.71109177555570       -0.33955481920568
H           -1.55753319220496        3.07191916942322       -0.04386371636930
H           -2.79148599223723        2.11198211603640       -0.91036967586390
H           -2.76945109197143        2.11590066890356        0.86188941589577
H           -1.13962438956317       -3.14943419949745        0.95446038555872
H           -1.16973334803473       -3.22297112260265       -0.83074232078984
H           -2.55017380634963       -2.53780211771687        0.05994593077031
H            1.37546466455268       -2.96977036349551       -0.15225742866950
25
 energy: 2.330828978251 xtb: 6.6.1 (8d0f1dd)
C            3.12630879541688        1.19564042274005        0.23284567577791
N            2.33878825577331        0.09096237793370       -0.21938051478134
C            2.63305081515068       -1.26921956201207       -0.16474655887570
N            1.43856321320580       -1.96661666242481       -0.15913811450150
C            0.42183980722482       -1.08582447652033       -0.11587371759060
C            0.94822442381873        0.19383756229764       -0.14799088499050
C            0.16642018724124        1.36241034188374       -0.11315022133820
O            0.54340216055730        2.53397713569822       -0.14007022458439
N           -1.22204999255567        1.04104773639808       -0.04048724983337
C           -2.14934999192696        2.15812941957423       -0.03106400148036
C           -1.78220700956479       -0.19767519787257        0.00537150889839
O           -2.98168741981830       -0.37173341096066        0.06844503676625
N           -0.91743895750160       -1.30748470320018       -0.02194635670278
C           -1.46595689829029       -2.64040528906019        0.04263577295961
H            2.78918259840905        1.55635486910611        1.36786619259141
H            4.17401608626121        0.92421099399248        0.02860187407691
H            2.87034067022916        2.06562659219134       -0.36191310315267
H            3.58620138778934       -1.71449938116253       -0.33925057622784
H           -1.55709003590813        3.07196019321295       -0.04180473350923
H           -2.79127694632416        2.11279879126725       -0.91033882903734
H           -2.77091368781492        2.11564504778652        0.86218248062470
H           -1.13912727877718       -3.15114605343283        0.95191145191992
H           -1.16987224630688       -3.22112899794399       -0.83368414078863
H           -2.54999043583738       -2.53714937064621        0.05904758565364
H            1.37283716748510       -2.97068977667390       -0.15103445572705
25
 energy: 2.811957274253 xtb: 6.6.1 (8d0f1dd)
C            3.13177798517626        1.19837595516377        0.23217558616037
N            2.33855481797021        0.09049504444236       -0.21876716482476
C            2.63631290896936       -1.27372704438989       -0.15511915154435
N            1.43732083147998       -1.96804638905757       -0.15473654810467
C            0.42392754128734       -1.08555657973354       -0.11398644446524
C            0.94791048741274        0.19530883968153       -0.14776170080621
C            0.16695901908810        1.36092996544700       -0.11119222453977
O            0.54442138138319        2.53554096569876       -0.13302110583633
N           -1.22360482215159        1.04133080347547       -0.03931850688244
C           -2.14991532715496        2.15864747123573       -0.03035735263990
C           -1.78146685177287       -0.19662172567109        0.00495297391594
O           -2.98246500655414       -0.37264192145956        0.06381625747341
N           -0.91767129072033       -1.30690180612007       -0.02032240527641
C           -1.46579328245266       -2.63969751894916        0.04112336509514
H            2.77886357732060        1.56101364644016        1.36331987819821
H            4.18126249121871        0.92581517431730        0.01902981591209
H            2.86608545239697        2.06191858938037       -0.36743082570930
H            3.58807076176202       -1.71790429786743       -0.33891423592495
H           -1.55665206180541        3.07200092865780       -0.03974353516057
H           -2.79107140717474        2.11361244392354       -0.91030121599752
H           -2.77237411859502        2.11538502670706        0.86248168415700
H           -1.13863022605570       -3.15285584800898        0.94936594182397
H           -1.17001302083628       -3.21928891894411       -0.83662142506644
H           -2.54980807591701       -2.53649844807123        0.05815330998152
H            1.37021290366160       -2.97160575412615       -0.14979107379150
25
 energy: 2.103715359168 xtb: 6.6.1 (8d0f1dd)
C            3.12644355071168        1.19669834034949        0.23596874585441
N            2.33816619988960        0.09038933516734       -0.21421156619312
C            2.63365580032396       -1.27009742140449       -0.15808434757969
N            1.43856190762055       -1.96688456636760       -0.15879367815708
C            0.42219123558211       -1.08609258030689       -0.11549089463043
C            0.94835085106673        0.19372622363710       -0.14652767140663
C            0.16628832886610        1.36244965917701       -0.11247728284211
O            0.54350165107497        2.53388890647731       -0.13804347010592
N           -1.22214394262803        1.04130888068111       -0.04098838446496
C           -2.14905734381572        2.15836998692815       -0.03139990809263
C           -1.78195443844247       -0.19766423338187        0.00496290992011
O           -2.98174855678707       -0.37227575948649        0.06689153812532
N           -0.91708288971121       -1.30759418413212       -0.02201354690452
C           -1.46583749079903       -2.64045980494829        0.04264390597629
H            2.78729127178754        1.55730227819079        1.36413785950941
H            4.17257060637916        0.92325540689768        0.02590722264851
H            2.87103727829004        2.06641373294191       -0.36431578918292
H            3.58578906669852       -1.71433865743056       -0.34399829341834
H           -1.55633668388439        3.07182360336893       -0.04214923332514
H           -2.79111775271693        2.11307169308806       -0.91056196096079
H           -2.77048663585710        2.11613228265505        0.86200641992690
H           -1.13910774196687       -3.15103875871345        0.95209624010843
H           -1.16967773352413       -3.22125675999634       -0.83356730019424
H           -2.54987536362910       -2.53705647346811        0.05890766871232
H            1.37279349340749       -2.97104252775168       -0.15386528717593
25
 energy: 2.101768188572 xtb: 6.6.1 (8d0f1dd)
C            3.12557555483528        1.19643530105172        0.23725605239213
N            2.33812621605672        0.08983978776594       -0.21231244068081
C            2.63349670200356       -1.26990668139945       -0.15664505211981
N            1.43876116097585       -1.96676627731793       -0.16011752551757
C            0.42184955703073       -1.08645287685109       -0.11661760075911
C            0.94874876456994        0.19308821872926       -0.14658311876478
C            0.16630387554977        1.36272552263392       -0.11277283704272
O            0.54348620835528        2.53332350211932       -0.13959424583498
N           -1.22174388222823        1.04136891530386       -0.04176506227841
C           -2.14870745897218        2.15835773651082       -0.03173274902593
C           -1.78193549779761       -0.19783621603149        0.00487725293960
O           -2.98151134269625       -0.37218304474951        0.06773382789130
N           -0.91686289562459       -1.30778624813727       -0.02284175904481
C           -1.46597252824155       -2.64059554786488        0.04328743924425
H            2.78656896217637        1.55703909433241        1.36483084242091
H            4.17363701512236        0.92434594411804        0.02572294912384
H            2.87075091868164        2.06630531964588       -0.36168273049820
H            3.58469134137414       -1.71325826739783       -0.34797154546171
H           -1.55619121912165        3.07183448369627       -0.04301401988712
H           -2.79127098101950        2.11300974824648       -0.91049304894407
H           -2.76971609745274        2.11653866219858        0.86193840358298
H           -1.13922853873246       -3.15025117950194        0.95314084317145
H           -1.16991540478324       -3.22196653706478       -0.83239520110483
H           -2.55000600703466       -2.53703929261316        0.05947495998848
H            1.37328024490945       -2.97114146525114       -0.15468973764284
25
 energy: 2.136871457967 xtb: 6.6.1 (8d0f1dd)
C            3.12507987799899        1.19631192798846        0.24042592818714
N            2.33828015512922        0.08884087185259       -0.20788980975450
C            2.63400855688829       -1.27046974109240       -0.15034024680518
N            1.43882080777505       -1.96679227505505       -0.16113818739092
C            0.42164885874210       -1.08684546871538       -0.11812953178593
C            0.94946857020161        0.19241291313195       -0.14597915845606
C            0.16658226923777        1.36281912673409       -0.11276431619500
O            0.54373484239690        2.53272241871155       -0.14076761395417
N           -1.22120539003447        1.04140010708650       -0.04271258091183
C           -2.14815867010792        2.15832801535143       -0.03198083398709
C           -1.78171297823383       -0.19789702788984        0.00464624013586
O           -2.98109269672299       -0.37200382288599        0.06843350101665
N           -0.91652319074670       -1.30789328540301       -0.02421756870706
C           -1.46601515565003       -2.64061028767091        0.04343887438299
H            2.78451153060049        1.55841089874285        1.36552117463635
H            4.17324108045057        0.92528784717295        0.02278404881986
H            2.87035487835531        2.06564757024985       -0.36135124963004
H            3.58301357894625       -1.71217413153864       -0.35553935449401
H           -1.55588601636986        3.07185978241163       -0.04369712848131
H           -2.79128053623022        2.11305593346698       -0.91030638318689
H           -2.76874611679535        2.11679574142373        0.86194919670875
H           -1.13926182290203       -3.14935733417278        0.95367030070460
H           -1.17011103201856       -3.22261874785106       -0.83167202673879
H           -2.55002691264929       -2.53684609275800        0.05959623025348
H            1.37349017967510       -2.97135633711948       -0.15494560821962
25
 energy: 2.084046521133 xtb: 6.6.1 (8d0f1dd)
C            3.12519086422021        1.19659240481583        0.24125615399960
N            2.33861703133632        0.08855392300628       -0.20715156582600
C            2.63467622375931       -1.27100505537485       -0.14462742359330
N            1.43863132955108       -1.96686505898147       -0.16125551823615
C            0.42159874016013       -1.08673914720009       -0.11911379349106
C            0.94974465181355        0.19244063205225       -0.14629131062636
C            0.16671482619074        1.36267811305342       -0.11305560681057
O            0.54377295235930        2.53275996692793       -0.14110949967028
N           -1.22106239914142        1.04129723144558       -0.04294594706538
C           -2.14808186584239        2.15826478770828       -0.03191500176901
C           -1.78169599890525       -0.19784680676209        0.00460043432301
O           -2.98099752767975       -0.37181672074130        0.06914368618464
N           -0.91651796960485       -1.30778678605066       -0.02493539835145
C           -1.46594386513095       -2.64051849174061        0.04307989073173
H            2.78364858141532        1.55853147446745        1.36489072439293
H            4.17443746377310        0.92616594777633        0.02179592123375
H            2.86949419116544        2.06467905498781       -0.36100917858325
H            3.58180560478743       -1.71184523019929       -0.36024301959408
H           -1.55590753377253        3.07191825826676       -0.04359853468584
H           -2.79121655920674        2.11302476929077       -0.91024575129347
H           -2.76865017311925        2.11650436779255        0.86202600359148
H           -1.13912024037284       -3.14917238697041        0.95334380765237
H           -1.17014426790702       -3.22268460480351       -0.83196027312274
H           -2.54995029358966       -2.53675538226617        0.05940190799179
H            1.37317090167709       -2.97134665832873       -0.15304681123513
25
 energy: 2.094627237186 xtb: 6.6.1 (8d0f1dd)
C            3.12513576003576        1.19657220457696        0.24108894102479
N            2.33906109657821        0.08852153693180       -0.20764959178848
C            2.63525138724533       -1.27142155839967       -0.13934573654247
N            1.43841364445559       -1.96698412895306       -0.16159160663260
C            0.42163784109063       -1.08652107148639       -0.11972039853504
C            0.94990758483469        0.19256971596682       -0.14681243759871
C            0.16682597860844        1.36254396341586       -0.11342140852470
O            0.54365836367668        2.53285709330954       -0.14098621129759
N           -1.22092795496056        1.04121301464389       -0.04300952298515
C           -2.14808824859104        2.15822235201523       -0.03182736384612
C           -1.78166435773694       -0.19783439225779        0.00456899748348
O           -2.98088604200155       -0.37169320955673        0.06968574581806
N           -0.91647450953618       -1.30765223280958       -0.02546619912663
C           -1.46578370982931       -2.64041355107535        0.04266232337810
H            2.78435319783053        1.55871916164099        1.36608162769998
H            4.17389199371010        0.92632404127423        0.02106199006843
H            2.86911341449477        2.06446621232386       -0.36155360633247
H            3.58056683443950       -1.71178812668469       -0.36407057261688
H           -1.55599752508950        3.07197076236897       -0.04323264789927
H           -2.79106000059255        2.11306335710350       -0.91029753285698
H           -2.76876651940980        2.11608059967332        0.86201726502159
H           -1.13896079163500       -3.14912835061073        0.95293752068562
H           -1.17000339965487       -3.22262672401432       -0.83237302675590
H           -2.54980720005327       -2.53671763265198        0.05911250070501
H            1.37281783002672       -2.97131443457265       -0.15082515239881
25
 energy: 1.962004070161 xtb: 6.6.1 (8d0f1dd)
C            3.12477506630351        1.19673219637063        0.24025868632495
N            2.33909551529480        0.08871384535785       -0.20894772539359
C            2.63559060618791       -1.27140659421519       -0.13511646054347
N            1.43832639006490       -1.96703947480655       -0.16174388587686
C            0.42173858529612       -1.08635814211993       -0.11980197235810
C            0.94984276816932        0.19261799704897       -0.14749397736341
C            0.16663139719236        1.36256313197770       -0.11365965068390
O            0.54347320827646        2.53283527931780       -0.14051659265133
N           -1.22090198685618        1.04127104888826       -0.04299764436102
C           -2.14820107696668        2.15824672294432       -0.03189840986163
C           -1.78165757460067       -0.19790554635726        0.00447189161414
O           -2.98089179089362       -0.37177674090735        0.06948748704998
N           -0.91635995166226       -1.30760094959513       -0.02553809333022
C           -1.46567113668477       -2.64039480698045        0.04259828093958
H            2.78603234305885        1.55783909573632        1.36591779284336
H            4.17357446020881        0.92608333310988        0.02258077553040
H            2.86910030282037        2.06498966832853       -0.36129319372554
H            3.57957651787797       -1.71157056211481       -0.36768161064846
H           -1.55612885504424        3.07200418717487       -0.04308853946814
H           -2.79100730750955        2.11302906600483       -0.91048125903754
H           -2.76897455352262        2.11591904317104        0.86187744025516
H           -1.13885208396365       -3.14914805840152        0.95289290151638
H           -1.16988330255423       -3.22259131312360       -0.83245544131218
H           -2.54970576293110       -2.53674696167201        0.05910726700089
H            1.37269289037457       -2.97127686296515       -0.14944417031218
