  72
        -99.43405946
 N         -3.2961937460        3.1243132254        3.2851580158
 C         -1.2160926444        1.6811307577        0.8297972748
 C         -2.6047570698        1.7000152738        0.1693882080
 C         -3.3252180863        0.3575114847        0.2131916642
 C         -4.3687577241        0.1122200535       -0.6837619125
 C         -5.0766648428       -1.0775296488       -0.6815279325
 O         -6.0892333361       -1.3852398256       -1.5206050695
 C         -6.4852940637       -0.4535080870       -2.4977568323
 C         -4.7520993701       -2.0834451250        0.2654681233
 O         -5.4792337215       -3.2165701273        0.1911013261
 C         -5.2092487105       -4.2588123640        1.0990051360
 C         -3.7462450036       -1.8237363006        1.1798117720
 C         -3.0508689469       -0.6217076081        1.1563575854
 C         -2.2220576598        2.0738882418       -1.2745807816
 C         -1.0332192599        1.1628720918       -1.5581333180
 C         -0.2003810453        1.2390964430       -0.2639223256
 N          0.5201057060        0.0498613746        0.1280811594
 C          1.9503717203        0.1400304875        0.2175003644
 C          2.6984200407        0.1224281297       -1.1377877725
 C          4.1750496204        0.1090173350       -0.8896040065
 C          4.9409095389        1.2584933227       -1.0010842019
 C          6.2977331125        1.2393834368       -0.7152100480
 C          6.9160943462        0.0699790747       -0.2969475661
 O          8.2197622314       -0.0619391039        0.0195873072
 C          9.0639721976        1.0617697946       -0.0683390291
 C          6.1390380067       -1.1150063317       -0.1764981937
 O          6.8142932483       -2.2073230300        0.2392582836
 C          6.1181227176       -3.4186941248        0.4074380489
 C          4.7883141631       -1.0730466719       -0.4771770360
 C          0.0024291230       -1.2467837594       -0.2202118719
 C         -3.5735198726        2.7428163713        0.8456587710
 C         -3.7316162131        2.3760251741        2.2701269800
 C         -3.1910607324        4.2092036329        0.6502196033
 H         -4.6432155016        0.8697130052       -1.3990199360
 H         -6.8523200143        0.4736450182       -2.0456368250
 H         -7.2970079571       -0.9310550554       -3.0430143931
 H         -5.6696934424       -0.2260351991       -3.1916126026
 H         -5.3873754996       -3.9470429595        2.1329064097
 H         -5.9004302783       -5.0584352785        0.8403595147
 H         -4.1814492920       -4.6215936767        0.9989432577
 H         -3.4870710833       -2.5554361862        1.9276812748
 H         -2.2922284961       -0.4800550878        1.9083180281
 H         -3.0224350233        1.9435006286       -1.9965008391
 H         -1.8909068299        3.1104396439       -1.3126412811
 H         -1.3894037063        0.1503116700       -1.7343414178
 H         -0.4628194995        1.4838060082       -2.4282609765
 H         -1.1451998619        1.0305949421        1.6950939718
 H          0.5432437368        2.0324969872       -0.3764209258
 H          2.3022221317       -0.7038848227        0.8168184138
 H          2.2111888727        1.0580511316        0.7507349009
 H          2.4161893904        1.0004009543       -1.7198958491
 H          2.4032795856       -0.7704160455       -1.6909947464
 H          4.4839402576        2.1824628936       -1.3213501877
 H          6.8681154851        2.1479028070       -0.8198935670
 H          8.7360793344        1.8628057384        0.6013896375
 H          9.1197088005        1.4420466986       -1.0928484849
 H         10.0473791783        0.7128275448        0.2409752199
 H          6.8582690943       -4.1356158669        0.7574967670
 H          5.3241788822       -3.3239797877        1.1554550109
 H          5.6909175258       -3.7715210445       -0.5364783293
 H          4.1905031600       -1.9677503529       -0.4009749088
 H          0.1924435936       -1.5235611720       -1.2657372570
 H         -1.0703937875       -1.2763016180       -0.0414906406
 H          0.4780155913       -1.9925484985        0.4172772305
 H         -4.5460855017        2.5849981287        0.3621271284
 H         -3.4201081185        2.8419553583        4.2430706902
 H         -4.1803031398        1.4273063215        2.5177810784
 H         -2.8663962313        4.0242617263        3.1076421046
 H         -2.1697474444        4.4185651894        0.9592539211
 H         -3.2921670038        4.4889970891       -0.3935882287
 H         -3.8691774090        4.8425910320        1.2190024960
 H         -0.9614398635        2.6858671645        1.1633384609
