  25
        -42.07990403
 C          3.2294896304        1.1232498054        0.0249995489
 N          2.2734954498        0.0481294038        0.0079295167
 C          2.5388071576       -1.2502455183        0.0022189855
 N          1.3890656970       -1.9553901186        0.0043259071
 C          0.3508261272       -1.0718269704        0.0121542543
 C          0.9040996457        0.2029380684        0.0163905465
 C          0.1037103278        1.3923258102        0.0033902597
 O          0.4881984537        2.5403864693       -0.0149156247
 N         -1.2958243408        1.0779161220        0.0111161809
 C         -2.1526027169        2.1099887299        0.0214157441
 C         -1.8631619027       -0.2317080212        0.0109970077
 O         -3.0509057903       -0.3925362251        0.0067196341
 N         -0.9756004915       -1.3050135137        0.0105195319
 C         -1.5115970144       -2.6539486324        0.0079042591
 H          3.7008657190        1.1943256177        1.0062953769
 H          4.0006122885        0.9547192661       -0.7251040171
 H          2.7092397775        2.0581589246       -0.1810233982
 H          3.5200055410       -1.6832673135       -0.0056480328
 H         -1.7413313400        3.1017809695        0.0450366702
 H         -3.0317926430        4.4716805615       -1.7006915266
 H         -3.2070282247        1.9069517539        0.0129380885
 H         -1.2253531213       -3.1793573511        0.9192878097
 H         -1.1628601165       -3.1983792672       -0.8693604539
 H         -2.5974780199       -2.5778209979       -0.0299193377
 H          1.3214955974       -2.9636811512        0.0020204453
