  72
        -99.24999298
 N         -1.4937328266        2.5830173630        2.3455828886
 C         -1.5860100995        1.8543187268        1.3357717560
 C         -2.7409946877        1.8719465160        0.3716412040
 C         -3.4548778440        0.5301917362        0.4090504985
 C         -4.4055684069        0.2227733793       -0.5664317740
 C         -5.0942574437       -0.9788167823       -0.5531968825
 O         -6.0279770065       -1.3514097249       -1.4516661009
 C         -6.4359112567       -0.4380998872       -2.4429384838
 C         -4.8258376438       -1.9284516059        0.4704780370
 O         -5.5331967256       -3.0725958719        0.3978921836
 C         -5.3734192522       -4.0449104175        1.4042602340
 C         -3.8883724522       -1.6125935462        1.4412603948
 C         -3.2144762188       -0.3981543443        1.4106935399
 C         -2.1175726791        2.1130636041       -1.0298645404
 C         -1.4122723602        0.8894891006       -1.6407741811
 C         -0.1266611818        0.5634319746       -0.9835929304
 N          0.2703123168       -0.6374729160       -0.6237399006
 C          1.6568383057       -0.8788155232       -0.1969125908
 C          2.3656209484       -1.7408785392       -1.1640669824
 C          4.6451569432        1.0135333817       -0.5596904240
 C          5.5375054411        2.0200299426       -0.3353514159
 C          6.8494030632        1.6287348368       -0.0577473925
 C          7.1998029474        0.2854042556       -0.0081137623
 O          8.4320600491       -0.1896822169        0.2656057324
 C          9.4802073719        0.7169521049        0.5205557831
 C          6.2203371951       -0.7209670934       -0.2545741531
 O          6.6493599485       -1.9929625393       -0.1780262176
 C          5.7244331700       -3.0399633931       -0.3512420751
 C          4.9181235208       -0.3178063813       -0.5465279192
 C         -0.5824943357       -1.7976075431       -0.7270594820
 C         -3.7863504336        2.9841112260        0.6823432576
 C         -4.4721286059        2.7456728676        2.0254623783
 C         -3.1969089086        4.3912637423        0.6477649359
 H         -4.6191031807        0.9413169611       -1.3402878451
 H         -6.8378802319        0.4788637353       -2.0016812679
 H         -7.2220286371       -0.9441450721       -2.9997078017
 H         -5.6157377684       -0.1890276746       -3.1242232133
 H         -5.6403928591       -3.6505237225        2.3892110196
 H         -6.0555350358       -4.8509163495        1.1412951282
 H         -4.3494194521       -4.4314797486        1.4307473685
 H         -3.6815431409       -2.3032699715        2.2424621318
 H         -2.5140822745       -0.1755489109        2.2007875067
 H         -2.9068344993        2.4234478213       -1.7137833359
 H         -1.4043156184        2.9352640660       -0.9572558430
 H         -2.0896044906        0.0372384426       -1.6453219068
 H         -1.1841279579        1.1442104233       -2.6835040816
 H         -0.7992187502        1.1459800026        1.0164665043
 H          0.5952254691        1.3628500384       -0.8891079996
 H          1.6277962055       -1.3403961824        0.7943170473
 H          2.1429608065        0.1020026691       -0.1122965790
 H          2.3823492655       -1.4262503293       -2.1923031159
 H          2.4503914887       -2.7955536953       -0.9774218555
 H          5.2737396210        3.0643082773       -0.3679510092
 H          7.5872851886        2.3939063565        0.1218742716
 H          9.2709940769        1.3348885028        1.3992140117
 H          9.6722507497        1.3606418578       -0.3431876039
 H         10.3563634771        0.1006939906        0.7130495492
 H          6.2864091359       -3.9580521041       -0.1892401722
 H          4.9117137265       -2.9759172120        0.3796423585
 H          5.3074281332       -3.0417991439       -1.3635218646
 H          4.1236366246       -1.0551521093       -0.7701051542
 H         -0.8111292608       -2.0340518727       -1.7681607266
 H         -1.5186388442       -1.6283513698       -0.1895612661
 H         -0.0714172630       -2.6502415067       -0.2864141747
 H         -4.5503265708        2.9168628955       -0.1009175879
 H         -3.7479039391        2.8141927307        2.8308381136
 H         -4.9460805437        1.7676676238        2.0575589947
 H         -5.2367083728        3.5015596132        2.1832305431
 H         -2.4213786529        4.4927237429        1.4004896525
 H         -2.7852586338        4.6366117262       -0.3273971052
 H         -3.9808143229        5.1109613810        0.8681925194
 H         -0.6534516647        2.5097811232        2.9103974869
