25
 energy: 34.206420934245 xtb: 6.6.1 (8d0f1dd)
C            3.27096039369577        1.36244233060730        0.14061570400061
N            2.45034647384580        0.14269167201608        0.02483848578123
C            2.79296203461437       -1.22003332685742        0.03400688622021
N            1.62834796372324       -1.96442458926003        0.01250980727900
C            0.50756053154426       -1.19611246649462       -0.02453600712102
C            1.02982759073049        0.13847236673127       -0.02156492699623
C            0.22018087027986        1.29021940777532       -0.06678874924976
O            0.53030380805559        2.48992965478996       -0.08697118150938
N           -1.14991712485849        0.92703708360915       -0.06862009394465
C           -2.14360724762472        1.98554667623863       -0.04976176140601
C           -1.69491822293619       -0.29434127761621       -0.07400337996504
O           -2.92338148430893       -0.31100581443936       -0.08165347149756
N           -0.92268638291235       -1.50411578869316       -0.06529407343511
C           -2.03414710296223       -2.62095195157034       -0.06532148178471
H            3.92813158018883        1.40019705058643        1.02342655157433
H            3.92494817671434        1.53926582878805       -0.72597894890474
H            2.58946402395167        2.22735474202254        0.24493358246387
H            3.77328759967010       -1.65989556438557        0.07546021424513
H           -1.53805520199599        2.89940615658201       -0.02807717571131
H           -2.78291165082035        1.88271024515570       -0.93275040105711
H           -2.78943011185863        1.84663096287955        0.82495202368041
H           -2.08055689769055       -3.22842610596567        0.82789456136915
H           -2.06655806155219       -3.20987821320480       -0.97141518242271
H           -2.93359369315631       -2.02151575798969       -0.06244918728655
H            1.60037629176694       -2.96990397927643        0.03204850623817
