25
 energy: 37.621064409222 xtb: 6.6.1 (8d0f1dd)
C            3.59410202402674        1.75083526800900        0.09634074191742
N            2.82328804739038        0.53400246586831        0.06272083295889
C            3.28382275513409       -0.70885454675245        0.07151101792287
N            2.25706985230758       -1.58602159890162        0.03348511695038
C            1.07606483946011       -0.86707432897228       -0.00102632793143
C            1.45838672319966        0.48230381270033        0.01776404426918
C            0.45068394617413        1.51108792655112       -0.00556169316599
O            0.67199934225559        2.71494508182567       -0.00389258432154
N           -0.80749855037593        0.95647948118684       -0.03671098386913
C           -1.94622793665908        1.85439204169652       -0.04428432576775
C           -1.14037146431823       -0.43684508905354       -0.05084893576998
O           -2.31308872900542       -0.72969041759148       -0.07415750187036
N           -0.13345097792687       -1.34648066327043       -0.03605347370276
C           -4.17664532742144       -3.77593375686765       -0.13193715078536
H            4.25018985902659        1.76086575236336        0.96305785619265
H            4.20059276823356        1.83301134368218       -0.80224305242382
H            2.91573710691953        2.60185694622090        0.14397700210542
H            4.31605963722045       -0.99115099010659        0.10318045651616
H           -1.56672346101818        2.87054599254306       -0.01203635284452
H           -2.53588883666449        1.69660517300847       -0.94667538250229
H           -2.58026014730860        1.64587185458423        0.81750800606994
H           -4.43255036612353       -4.25318309104917        0.78823926193229
H           -4.41860514614298       -4.27412278978651       -1.04579877395415
H           -3.74205290024248       -2.80768585815823       -0.13022960795190
H            2.32745305982811       -2.59340418139325        0.04379622743647
