25
 energy: 37.622020451284 xtb: 6.6.1 (8d0f1dd)
C            3.62762978027322        1.76712733134051        0.08849958222273
N            2.84676824500262        0.55658365793751        0.06050821000425
C            3.31256477131888       -0.68399478602868        0.06739272476021
N            2.28892360832644       -1.56205187639232        0.03460293408991
C            1.10614984012546       -0.85045547980217        0.00615665403137
C            1.47964872452213        0.50049225992707        0.02185880554996
C            0.45767416596540        1.52064587326757        0.00604762492267
O            0.66854087796038        2.72553945088571        0.02335452764930
N           -0.80248156458146        0.96734072430317       -0.02707894682555
C           -1.94054615662853        1.86922717879852       -0.04193124660967
C           -1.12168191875116       -0.42816744404742       -0.04622234238053
O           -2.28583715731552       -0.75214380568645       -0.08043331125873
N           -0.10514811165837       -1.32683186118532       -0.02710524243668
C           -4.27816446280721       -3.82381887375712       -0.13433161223628
H            4.23894937147204        1.80535357125534        0.99065324149231
H            4.28219298024211        1.81808108060513       -0.78219683187339
H            2.94163564014435        2.61469801441692        0.07804619330304
H            4.34904884060623       -0.95395473869053        0.09708044692470
H           -1.56515858357312        2.88999500534560       -0.00866401386278
H           -2.52902217136118        1.71111516474603       -0.94621975661517
H           -2.57999184422628        1.67075095890709        0.81852643531299
H           -4.56635402822481       -4.29617912976362        0.78219909061383
H           -4.52867817123737       -4.28544083647852       -1.06655949850870
H           -3.74227436515155       -2.89730474778473       -0.12054868457768
H            2.35782599452765       -2.56757790337537        0.03339892850440
