72
 energy: -99.277622439636 gnorm: 0.003067532558 xtb: 6.6.1 (8d0f1dd)
N           -1.88999082922537        2.79214989112605        2.23994158136077
C           -1.80949625314119        2.07211288419501        1.21968975962891
C           -2.95256884908866        1.81184601324394        0.27379272914403
C           -3.36037505176322        0.34982947243573        0.34243811146997
C           -4.28047542002634       -0.15127797746771       -0.57931614314022
C           -4.76180165993124       -1.45372892952993       -0.48781840312910
O           -5.66806568813059       -2.02425878049678       -1.30897371032157
C           -6.28805554870957       -1.23395261810534       -2.30124285344788
C           -4.27185943346094       -2.26630844124515        0.54597875042567
O           -4.83113745214245       -3.57774664128159        0.65050940172903
C           -5.69806464255457       -3.72486056045832        1.87189867297981
C           -3.34462611629046       -1.79282588821820        1.45530077663354
C           -2.88852228895402       -0.48878923118663        1.34869908139896
C           -2.42581424801156        2.16909410002105       -1.14048372223541
C           -1.43670911631669        1.15346140505165       -1.74260015699722
C           -0.09827388132974        1.17769242710555       -1.10805093686037
N            0.60122777573412        0.10102999981569       -0.73250545829246
C            1.98318369194181        0.22404540653599       -0.33646888107121
C            2.94988741174716       -0.20473077264750       -1.45720077262369
C            4.37003318022421       -0.03723150267688       -0.99434542359398
C            5.04418578210763        1.15459789393247       -1.19406277938612
C            6.34318835438742        1.32038930399945       -0.73686472938249
C            6.99107673658964        0.29584486076181       -0.06413311982285
O            8.24788076272307        0.34562152604364        0.42292022535304
C            9.00468305300330        1.51977583391413        0.24240557336734
C            6.30630124561895       -0.93036552642250        0.14822528034838
O            7.01171836625742       -1.87538667345274        0.80804140246369
C            6.42603635593725       -3.13359491016631        1.03600268287323
C            5.00957408196869       -1.07330700227963       -0.31613409616297
C            0.04952468225924       -1.22898753529911       -0.80285744691761
C           -4.22255207462807        2.66100395629892        0.59132606256086
C           -4.82506739317632        2.28719118756867        1.94421483850994
C           -3.96767363907329        4.16486115269049        0.54094883479986
H           -4.64958953337993        0.48904321776628       -1.36224086891898
H           -6.80069582947458       -0.37415246781416       -1.86217152045804
H           -7.01852184161431       -1.88600840144538       -2.77557724501235
H           -5.56616013527594       -0.89423944831263       -3.04929375500739
H           -6.47790898915804       -2.97730711173749        1.82279661800808
H           -6.06387085227915       -4.74305211014394        1.86453686902617
H           -4.12764843927359       -4.23901688144684        0.77389081784956
H           -3.00805634309812       -2.43036193453235        2.25789101723988
H           -2.19281446824202       -0.11621737104490        2.08263453522548
H           -3.27366918312868        2.25819700160047       -1.81945040296090
H           -1.94133841741546        3.14471355592266       -1.09200517707651
H           -1.87362940872231        0.15658901361237       -1.71897114537272
H           -1.30895869224660        1.43469189092341       -2.79658095092463
H           -0.87571675397157        1.59192055173893        0.87487883861652
H            0.41904322677569        2.12335137540020       -1.06783965004343
H            2.15857678938805       -0.39622057409930        0.54752334149817
H            2.19050839772725        1.26205876393037       -0.06988857144221
H            2.76600892681029        0.41498838429596       -2.33622197983967
H            2.76198546464591       -1.24601675594038       -1.72258091851005
H            4.56460428770027        1.96545460149542       -1.72110812229839
H            6.84508751038976        2.25710051173144       -0.91526527120642
H            8.53508623033590        2.37904383602590        0.73116654208909
H            9.15577663706636        1.74024862768066       -0.81871964846042
H            9.96718504882197        1.32112379797114        0.70988729362517
H            7.18291322577397       -3.71849308198365        1.55508894568104
H            5.53546662453782       -3.05433369026733        1.66845444850285
H            6.16534322779963       -3.63221575101110        0.09693678519733
H            4.48321570616525       -2.00327915744783       -0.16646665640156
H           -0.07390544504880       -1.55545550174388       -1.83878901843969
H           -0.92177892592939       -1.26399142560421       -0.30347253293218
H            0.72156787457910       -1.92014024117913       -0.29993590521649
H           -4.95900026118305        2.41881688176826       -0.18368874568599
H           -4.13018263488863        2.53262056995491        2.74011239949682
H           -5.06081332605422        1.22678960482695        1.99498329420560
H           -5.74294886719183        2.84779016973814        2.09975321813563
H           -3.21064254816681        4.44325459001672        1.26670442635537
H           -3.65690458712399        4.49117511408889       -0.44785054437846
H           -4.88687636425434        4.68841165383710        0.79026065156056
H           -1.04159362894087        2.92406339011957        2.78260829920839
