  72
        -99.29380528
 N         -1.7937353972        2.6906371517        2.5417887116
 C         -1.7845758965        2.0794257859        1.4537237853
 C         -2.9491590133        2.0095831468        0.5046581138
 C         -3.4683212752        0.5804538435        0.4446124347
 C         -4.4380713085        0.2365624184       -0.4993516898
 C         -4.9642289842       -1.0429393790       -0.5645693322
 O         -5.9125369935       -1.4516242962       -1.4308724806
 C         -6.5133980545       -0.5122885504       -2.2912222535
 C         -4.4972481072       -2.0386986485        0.3369576880
 O         -5.0600260748       -3.2542251568        0.1995813858
 C         -4.7056792030       -4.2811729121        1.0966561805
 C         -3.5306476294       -1.6915262637        1.2678031371
 C         -3.0276459837       -0.3980838403        1.3226731099
 C         -2.4008559739        2.4321924744       -0.8837761346
 C         -1.5121929939        1.3765938500       -1.5631961713
 C         -0.1595263479        1.2793247280       -0.9727664347
 N          0.5080148460        0.1555539488       -0.7648071476
 C          1.8989864138        0.1885582257       -0.3763560367
 C          2.8308283547       -0.0866829918       -1.5712118067
 C          4.2635760729       -0.0100927780       -1.1168618106
 C          4.9776966642        1.1876352872       -1.2329377344
 C          6.2882737858        1.2788391467       -0.7916274825
 C          6.9227740952        0.1927117659       -0.2112671811
 O          8.1735274246        0.1699530666        0.2501621027
 C          8.9813213971        1.3220998551        0.1692513353
 C          6.2102503739       -1.0843016940       -0.0558166387
 O          6.7447336825       -2.0696454732        0.4695019222
 C          6.7211925572       -5.8268958632        1.4197818266
 C          4.8642592762       -1.1051050271       -0.5460237834
 C         -0.0820675856       -1.1405629327       -0.9996833615
 C         -4.1293953983        2.9419796385        0.9105121550
 C         -4.7675801992        2.4981464724        2.2244350667
 C         -3.7316617303        4.4125504057        1.0015419871
 H         -4.7992452385        0.9865354021       -1.1830903373
 H         -6.9853064155        0.3000591837       -1.7303699063
 H         -7.2766115036       -1.0632981631       -2.8371051398
 H         -5.7914754923       -0.0972433228       -3.0020032495
 H         -4.9389940447       -4.0083853566        2.1300901147
 H         -5.3051849324       -5.1416485374        0.8064419849
 H         -3.6441816960       -4.5358915341        1.0162679554
 H         -3.1699252376       -2.4206926323        1.9749337875
 H         -2.3027771063       -0.1597729610        2.0855213480
 H         -3.2437159297        2.6407384230       -1.5414121013
 H         -1.8341754488        3.3571949709       -0.7721248867
 H         -2.0216572768        0.4140899659       -1.5660267682
 H         -1.3888742405        1.6896773931       -2.6084436038
 H         -0.8973024176        1.5536429903        1.0506685381
 H          0.3837697236        2.2002421576       -0.8185776955
 H          2.0746958082       -0.5621434376        0.3984707675
 H          2.1353385925        1.1703650997        0.0389628686
 H          2.6412521039        0.6540817695       -2.3499798026
 H          2.6236495209       -1.0778707638       -1.9761434712
 H          4.5106683103        2.0497632622       -1.6846070202
 H          6.8148109958        2.2136904774       -0.9088796386
 H          8.5439005380        2.1563725318        0.7264780154
 H          9.1424336196        1.6234497152       -0.8701857630
 H          9.9333940578        1.0445921229        0.6184999743
 H          7.6615561524       -5.3513308619        1.6192300860
 H          5.9568086628       -5.8355316939        2.1673947619
 H          6.5336434194       -6.2587365353        0.4601374656
 H          4.3411679167       -2.0448392635       -0.4502084642
 H         -0.3009823818       -1.2877293661       -2.0590362380
 H         -1.0101089016       -1.2459433349       -0.4326396970
 H          0.6106746012       -1.9134455900       -0.6778332983
 H         -4.8843255745        2.8459799622        0.1219050613
 H         -4.0564686641        2.6009201042        3.0377037298
 H         -5.0976201885        1.4634319633        2.1722309279
 H         -5.6310742689        3.1223636252        2.4382868780
 H         -2.9687580548        4.5510491649        1.7612246979
 H         -3.3672913884        4.7954232357        0.0520376730
 H         -4.6018582731        4.9991124382        1.2839343509
 H         -0.9440931803        2.6950191731        3.0968016027
