25
 energy: 13.667241410294 xtb: 6.6.1 (8d0f1dd)
C            3.19799354597923        1.47422116600433        0.10264049047457
N            2.42514969610318        0.08136245251424        0.08139800558965
C            2.65926211681776       -1.33224749156933        0.10654989952890
N            1.45360966427998       -2.04221653241119        0.02155359037726
C            0.43646191334140       -1.15857925533776       -0.01237197250898
C            1.00644525207901        0.12206709164322        0.01879663298313
C            0.18297310169522        1.26717208236823       -0.01226113113331
O            0.55201600622505        2.44425004761917       -0.02901406934080
N           -1.21026072333102        0.97321945225347       -0.03092041973547
C           -2.09248307116010        2.12159657876123       -0.02707356851327
C           -1.79196390891387       -0.25156004841738       -0.05132074567381
O           -2.99802471572473       -0.40538634383600       -0.07140538928859
N           -0.92858189301228       -1.37043047469395       -0.05274209838997
C           -1.57913030552695       -2.66505446815061       -0.07426415121140
H            3.68738501660698        1.72591493138347        1.04579049630677
H            3.96951723933323        1.54804961687227       -0.67340554953113
H            2.40956587728139        2.21600795148977       -0.06359014042957
H            3.58291182270008       -1.85876980535856        0.05211667292637
H           -1.45212231996922        2.99872246270018       -0.05607621038627
H           -2.71725212422983        2.07686303803669       -0.89544620354342
H           -2.65646492718420        2.13290820693727        0.89251126284955
H           -1.33383739761119       -3.24727553477338        0.81682425836453
H           -1.30450064258963       -3.22559102604717       -0.96958156932031
H           -2.65733924342460       -2.47243419338683       -0.08830212245865
H            1.35352459197876       -3.05395326982354        0.00156057871870
