25
 energy: 35.692168826283 xtb: 6.6.1 (8d0f1dd)
C            3.55553132123159        2.21933522897829        0.16841762183102
N            2.34119494595016       -0.28148290991980        0.05194103823336
C            2.49759247069111       -1.56752912438112        0.06633984441304
N            1.30620565187206       -2.26609920106423        0.01844677426523
C            0.33498512767440       -1.31657289374955       -0.03240546585423
C            0.98742883529837       -0.08572349177666       -0.01628832679837
C            0.22531906991853        1.13581919007564       -0.05484290423998
O            0.64826153585467        2.26855164641753       -0.09510509504661
N           -1.15678983517553        0.90659378923421       -0.04433084984684
C           -1.98743767589496        2.09778503657675       -0.01394537365824
C           -1.80208212966448       -0.29998579222422       -0.06274312072041
O           -3.01265576415166       -0.36742047659778       -0.06441708380108
N           -1.01799781497431       -1.45693330873457       -0.08100192017239
C           -1.73915815597847       -2.70715235710658       -0.10195974160963
H            3.94784102294779        2.37934596585580        1.12434526463654
H            4.13741648581542        2.16240102477952       -0.69698898340019
H            2.55230097962290        2.50874480441763        0.02613254233075
H            3.44383049507700       -2.07753121584319        0.03579565325903
H           -1.29508135926662        2.91725636844388       -0.21126148617216
H           -2.78496690558492        2.00051083790224       -0.72931683214373
H           -2.37040967959315        2.22712488596957        0.99011118118684
H           -1.52845041556831       -3.30128144321148        0.79148954838582
H           -1.49454978935317       -3.27905129219108       -0.99478487317422
H           -2.79823885401824       -2.41887478292898       -0.12057817494329
H            1.19857683839584       -3.27418710439751        0.03503953921220
