25
 energy: 33.624393814944 xtb: 6.6.1 (8d0f1dd)
C            3.67187195388982        2.45705952421063        0.17610774568694
N            2.31075577723434       -0.37616682687026        0.03937641616161
C            2.44453957154085       -1.66228049061408        0.03898226067843
N            1.24255454197473       -2.33905117052824        0.00632474845571
C            0.28832863515575       -1.37100556917346       -0.03531171786560
C            0.96350320204521       -0.15572670341876       -0.01803065248409
C            0.22245677869784        1.07902919994506       -0.05001659618226
O            0.67502506239700        2.20094661524850       -0.06613024156609
N           -1.15410677278898        0.88005636891464       -0.05058214105761
C           -1.96012145613661        2.08778294658848       -0.03683594149527
C           -1.82590953714077       -0.31359969830223       -0.06828929150601
O           -3.03670563695520       -0.34977671657848       -0.06833877024507
N           -1.06725230977494       -1.48445162795714       -0.08370419882705
C           -1.80453099241140       -2.72564434477267       -0.11748547573886
H            4.05948818110821        2.64297120102606        1.13444347440094
H            4.25878306282674        2.40924748782507       -0.69182738948929
H            2.64415817811836        2.64169342548730        0.02578247550874
H            3.38101158560397       -2.17841645681895        0.06084832635841
H           -1.27508898736116        2.89008646994024       -0.29597561086479
H           -2.73240485071486        2.01034674273064       -0.78558976899228
H           -2.35905568568433        2.23594079115311        0.96047172231582
H           -1.60261341553131       -3.33251208925052        0.76794915359925
H           -1.57140117424711       -3.29648216837531       -1.01566082140440
H           -2.86268913851058       -2.43579858349789       -0.12888900567157
H            1.11358726088578       -3.34332103947345        0.01405370493864
