25
 energy: 29.876502342515 xtb: 6.6.1 (8d0f1dd)
C            3.88849658777454        3.00475977668746        0.14884485096119
N            2.25700812909483       -0.60853347405041        0.01676863119614
C            2.32870990400229       -1.89730010725847        0.00579239264653
N            1.09043019880835       -2.49866960192226       -0.02034754697844
C            0.18719450975808       -1.48339750603954       -0.03416808040817
C            0.92329144033966       -0.30884022398216       -0.01027399081169
C            0.27143040336091        0.97209254450784       -0.01817508184687
O            0.78300795542746        2.06594787852800       -0.00302606798032
N           -1.13035623613809        0.83115027250734       -0.03998841207667
C           -1.91518332536106        2.05729498863590       -0.03173093571646
C           -1.87069402022820       -0.32815618267695       -0.05853783941062
O           -3.08127768859071       -0.31752236177480       -0.06943405362281
N           -1.16903578395120       -1.53395397151195       -0.06613906969846
C           -1.90454364592169       -2.78141703702889       -0.09421551249892
H            4.27875982428545        3.25805220540745        1.11155762895964
H            4.56351784728114        2.90786029008810       -0.67301560149840
H            2.85383888773124        2.76027809782226        0.03444382210114
H            3.24930024022279       -2.44239965711400        0.03531871194919
H           -1.22491825825075        2.89449900872183       -0.10365976988176
H           -2.60600896924758        2.05744585127069       -0.87276257539013
H           -2.48706255396841        2.12567607628240        0.89227065496954
H           -1.68599070930473       -3.38072110531430        0.79179679179940
H           -1.66327285616377       -3.35321247082977       -0.99260666828640
H           -2.96503304354343       -2.52983500580717       -0.10365432133174
H            0.89783112356826       -3.48688697177679       -0.03800062768465
