25
 energy: 38.930608018354 xtb: 6.6.1 (8d0f1dd)
C            3.37031964055574        1.92887810148186        0.13902749718533
N            2.37776965561405       -0.16233767376356        0.07083140330552
C            2.57045627752967       -1.45264095628672        0.10606389739789
N            1.38554292026876       -2.16399028994090        0.03346877771523
C            0.39090952329450       -1.23891487676476       -0.01908232145281
C            1.01421788553914        0.01001968936563        0.00322273661721
C            0.21774741184852        1.21192915212590       -0.03060800010785
O            0.58402810269078        2.36527091348617       -0.06992062837708
N           -1.17410123118257        0.94114162757512       -0.03663554244967
C           -2.04238975142980        2.10631049451135       -0.01824197523755
C           -1.78393702741283       -0.27800248604430       -0.05482160082996
O           -2.99059532559124       -0.39041473075738       -0.06863067472596
N           -0.96081462781543       -1.41514965075919       -0.06302564184108
C           -1.64898993255318       -2.68450028182591       -0.08291842311872
H            3.75513671385360        2.04503944658086        1.10218366323181
H            3.98526795042574        1.82874878872607       -0.70231636676918
H            2.41589506391110        2.36680381241398       -0.00544361260133
H            3.51739417490656       -1.97473534580413        0.06915992546140
H           -1.36693975746036        2.95696504870832       -0.09669082689734
H           -2.75006419570385        2.03887381206755       -0.82322230878538
H           -2.53359179399765        2.16351188255506        0.94098044807350
H           -1.41694542212757       -3.27080102531741        0.80850766436441
H           -1.38806117289804       -3.24820000864304       -0.97877928832377
H           -2.71548490874117       -2.43705594529078       -0.09512168329844
H            1.28627370819405       -3.17088017879331        0.03274759840092
