25
 energy: 34.387813031995 xtb: 6.6.1 (8d0f1dd)
C            3.63230414419993        2.37779835678780        0.17377861593932
N            2.32085031663106       -0.34315064768806        0.04308290330494
C            2.46186831248377       -1.62877825913370        0.04416824533060
N            1.26406207062793       -2.31402457898460        0.00940507655289
C            0.30400852048179       -1.35286826730845       -0.03521220090216
C            0.97133048964139       -0.13226634726548       -0.01853953251905
C            0.22226387945027        1.09728355738622       -0.05366654805049
O            0.66881089361736        2.22191928676312       -0.08296430328242
N           -1.15330440015216        0.88960286129601       -0.04842928698030
C           -1.96418761833638        2.09409506528456       -0.02860378552716
C           -1.81721520063761       -0.30871038851845       -0.06740408555707
O           -3.02787036739240       -0.35453483967286       -0.06663327126963
N           -1.05067754892818       -1.47647491738937       -0.08512350076040
C           -1.78359278213601       -2.71936984611575       -0.11257871857109
H            4.02461574528060        2.55255773467276        1.13056516128449
H            4.21699419775501        2.32676794019545       -0.69314539375138
H            2.61072865919640        2.59804713552626        0.02588242353457
H            3.40087810247545       -2.14354929256286        0.05154776121810
H           -1.27648843432127        2.90022046947687       -0.27318036634691
H           -2.75019302504612        2.01232387396451       -0.76176859967160
H           -2.32491750783515        2.24987220545549        0.98057414705387
H           -1.57876820027740       -3.32139364566038        0.77683643634968
H           -1.54617612612628       -3.29213781111531       -1.00741158557539
H           -2.84229710225041       -2.42759195208803       -0.12813390414325
H            1.14114463458140       -3.31917957707892        0.02032699297286
