25
 energy: 30.947271554966 xtb: 6.6.1 (8d0f1dd)
C            3.82214402578923        2.78042353428085        0.16891649100549
N            2.27550183841446       -0.51028369919287        0.02932513252800
C            2.37922041308796       -1.79826599025909        0.01726666866825
N            1.15703996878664       -2.43436497439745       -0.00794878179088
C            0.22910299904942       -1.43941546548196       -0.03424558950020
C            0.93742451297646       -0.24571356161195       -0.01206480449699
C            0.26199146309263        1.02228485185387       -0.02834934227865
O            0.74779831715904        2.12628532104209       -0.02677346683983
N           -1.13456057097068        0.85418008318871       -0.04280047498799
C           -1.93164833514900        2.07192176733809       -0.03588759433146
C           -1.85151122769816       -0.32026557606418       -0.06133873451526
O           -3.06200159903314       -0.32912685231368       -0.07139638553982
N           -1.12908413100421       -1.51355802510263       -0.07043653788835
C           -1.86616852445854       -2.76042479333203       -0.10452194564855
H            4.18814377145893        2.99896516331166        1.13876760304684
H            4.43885122633648        2.71617816588489       -0.69095698018081
H            2.77293174550321        2.78612671124471        0.01864587707999
H            3.30757189605566       -2.32968093011545        0.05521242276076
H           -1.24537676870773        2.90671982777935       -0.14998006778282
H           -2.62943417166338        2.05568506193160       -0.86542689504907
H           -2.48131538964667        2.14567469691619        0.89634626984687
H           -1.65698745357686       -3.36505530651080        0.77843664967957
H           -1.63359983716326       -3.32989535418936       -1.00661002021332
H           -2.92684115131394       -2.50242317837740       -0.11044254639763
H            0.99661880018803       -3.43213676262466       -0.01376048247427
