25
 energy: 36.561933772644 xtb: 6.6.1 (8d0f1dd)
C            3.50850204500338        2.14266208097297        0.16400398047923
N            2.35015039092051       -0.25090185237885        0.05703835522609
C            2.51572900481015       -1.53766869166492        0.08305905865309
N            1.32687831226383       -2.24145180563806        0.02390401272322
C            0.34961360744567       -1.29777437620909       -0.02902604835642
C            0.99432878746994       -0.06193305553096       -0.01227918770833
C            0.22370325801596        1.15527339838967       -0.05151930977431
O            0.63239536036308        2.29268710465970       -0.09445952611401
N           -1.16064971246228        0.91497475140033       -0.04161358344086
C           -2.00022786062997        2.10047495459619       -0.01098128573044
C           -1.79600796813030       -0.29545559750630       -0.05995007854388
O           -3.00603035252832       -0.37375842318283       -0.06430006869415
N           -1.00247338749680       -1.44734433085777       -0.07760752812309
C           -1.71615285880316       -2.70229026993813       -0.09667506500837
H            3.90136656357757        2.29669952393493        1.11894731620981
H            4.09206507659029        2.08178933358330       -0.69915554351321
H            2.51594713981707        2.47469946163587        0.02687128215987
H            3.46645409014147       -2.04587259837299        0.03931168021687
H           -1.30204362139585        2.92498562598141       -0.17525215864391
H           -2.78120238720534        2.00765211079524       -0.74479140271841
H           -2.41026514048868        2.21139024365663        0.98558361462023
H           -1.50054385655874       -3.29334605622767        0.79680458899713
H           -1.46761354071805       -3.27182061890155       -0.99028112794650
H           -2.77612328918923       -2.41934769751934       -0.11447253735148
H            1.22585617458015       -3.25075855664118        0.03922575277201
