25
 energy: 29.839828590334 xtb: 6.6.1 (8d0f1dd)
C            3.88891113721947        2.98090290893278        0.15232483545669
N            2.25962751537869       -0.61215893980655        0.02016764356359
C            2.32967750734509       -1.90040240865684        0.01271907144003
N            1.08889563962674       -2.50049727844826       -0.02148345076629
C            0.19094339766746       -1.48172104821823       -0.03581016184821
C            0.92742904116215       -0.30692664650866       -0.01019542804081
C            0.27359925264575        0.97720653027866       -0.01349836444900
O            0.78831303106433        2.06945360314775        0.00165545575438
N           -1.12892620061272        0.83970756631080       -0.03786157297808
C           -1.91942507629089        2.06362108694983       -0.03423977568341
C           -1.86703373894535       -0.32187193494683       -0.05729698968701
O           -3.07742018867134       -0.31514542786685       -0.06982366607108
N           -1.16396998013878       -1.52664436101391       -0.06441707655325
C           -1.89175983449945       -2.77661900582462       -0.09054325165980
H            4.27566723449644        3.25566250543924        1.11023328717599
H            4.55707669396004        2.87758605016004       -0.67540751369815
H            2.84726204841353        2.77440021587430        0.03330659707555
H            3.24050952572489       -2.46265264232281        0.03266389292010
H           -1.23317675051524        2.90604129440481       -0.08643938168937
H           -2.59487255023019        2.06834436296131       -0.88876915136569
H           -2.51407057927451        2.11955207756631        0.87736936999877
H           -1.66642439692571       -3.37066603501806        0.79719257270495
H           -1.64460309276720       -3.34567528130730       -0.98882492135191
H           -2.95352850812612       -2.53324748381040       -0.10006637867647
H            0.89951317726539       -3.48922091953234       -0.03592172937690
