25
 energy: -1.885352609288 xtb: 6.6.1 (8d0f1dd)
C            3.20409059618047        1.32420755424392        0.09196803828405
N            2.37351086733607        0.09905205075314        0.05290384143346
C            2.63390544636024       -1.28667855301982        0.04740369138869
N            1.42940617336807       -1.98684123058024        0.00623273504375
C            0.41555077201498       -1.10364318689717       -0.01020878600287
C            0.96533919806393        0.17551232998981        0.01561006646168
C            0.14918349058461        1.32828632824291       -0.00819798282414
O            0.52842563950518        2.50275737253171       -0.01441429639866
N           -1.24120263864516        1.01197910757712       -0.03090308929209
C           -2.15935507900284        2.13356974814572       -0.04011253413352
C           -1.81126292652462       -0.22285231922118       -0.04915339098817
O           -3.01518415840224       -0.39095966167651       -0.07170338161243
N           -0.93872916173038       -1.33020664037534       -0.04330824033893
C           -1.52760495185963       -2.65060465754353       -0.06706592515864
H            3.71171099812122        1.47300885086763        1.05537868072727
H            3.99426834853442        1.29386421724878       -0.67230865959738
H            2.54918496214356        2.17533764834613       -0.07961309208400
H            3.58499371697536       -1.75752637287155        0.04901633867877
H           -1.56132730645108        3.04011036064567       -0.03604418907186
H           -2.76366360378550        2.09275522151735       -0.93522245551433
H           -2.77311163400906        2.10472286383058        0.85207600161707
H           -1.25384395658093       -3.21991629583540        0.82421458865786
H           -1.22549169936529       -3.19735762156002       -0.96310009158959
H           -2.61097293336184       -2.51168763869070       -0.08206048020387
H            1.31792958232376       -2.99112647215854       -0.01232358995213
