25
 energy: 35.076737167986 xtb: 6.6.1 (8d0f1dd)
C            3.59720528318272        2.29760611333842        0.17120364629924
N            2.33123679501729       -0.31183858718140        0.04653079286431
C            2.47984890043098       -1.59753493969672        0.05132747065387
N            1.28530712648948       -2.28982468477684        0.01307019492025
C            0.31982467322034       -1.33458376636307       -0.03421654743459
C            0.97932526357267       -0.10866461320243       -0.01804254462844
C            0.22289185389317        1.11736457422017       -0.05486477344186
O            0.66172868374348        2.24462919416041       -0.09223597649805
N           -1.15471416557740        0.89878038231022       -0.04709011678725
C           -1.97320165164639        2.09779988915753       -0.02190079746142
C           -1.80930416027182       -0.30390521786026       -0.06570037712466
O           -3.01990793391260       -0.36040276063203       -0.06584868255683
N           -1.03414074855624       -1.46632535263896       -0.08321442386412
C           -1.76166785859489       -2.71264097432386       -0.10673471110208
H            3.98850456717928        2.46534194574516        1.12775926327210
H            4.18067562308724        2.24280314242565       -0.69460293323531
H            2.58415528511378        2.54730007891602        0.02533351973082
H            3.42214190343530       -2.11111492260284        0.03735537017747
H           -1.28055430216445        2.90863417868599       -0.24479967850297
H           -2.76779631537825        2.01088596177824       -0.74385863964274
H           -2.33198633751336        2.24495636549168        0.98811925362536
H           -1.55511207073961       -3.31022891809232        0.78580684763841
H           -1.52048593663313       -3.28631061514680       -0.99931535013579
H           -2.82010838914753       -2.42057937425180       -0.12553183589491
H            1.16936933395050       -3.29625434681897        0.02698478978871
