25
 energy: 31.518261646051 xtb: 6.6.1 (8d0f1dd)
C            3.78073929457802        2.70339376997307        0.17138178989260
N            2.28607658904930       -0.47755935722929        0.03208996084159
C            2.39692355401785       -1.76522357572768        0.02159162673456
N            1.17984065344103       -2.41183048967473       -0.00362887284821
C            0.24513417689200       -1.42328346303720       -0.03450243331919
C            0.94610305525562       -0.22380909378301       -0.01380593647864
C            0.25429728866526        1.03717620351630       -0.03626452540056
O            0.72908382017049        2.14583402733474       -0.03883252981812
N           -1.13793687895312        0.86029127641326       -0.04591240714958
C           -1.93834353134161        2.07522519908435       -0.03431946542778
C           -1.84373543030161       -0.31889128116435       -0.06249605502475
O           -3.05421573337718       -0.33353861736512       -0.07180853985050
N           -1.11311343448693       -1.50663945759851       -0.07372890707582
C           -1.85603213348381       -2.74850683004023       -0.11646804824438
H            4.15297844394583        2.91133418092661        1.13933313234033
H            4.38693772716404        2.64407281746062       -0.69335974567133
H            2.73497354119429        2.75286691360298        0.01903041543611
H            3.32703636302008       -2.29285745329341        0.05919137149680
H           -1.25110473658329        2.90480800401169       -0.18796949337054
H           -2.65514018416396        2.04381702855418       -0.84590059617700
H           -2.45237066420582        2.16708619999800        0.91654748728932
H           -1.65935820614093       -3.36252680252771        0.76014162102293
H           -1.63402117822818       -3.31466764746058       -1.02316975493209
H           -2.91472001323191       -2.48008691424203       -0.11785942057303
H            1.02710602762220       -3.41138336771298       -0.00673863577914
