25
 energy: 28.209899045476 xtb: 6.6.1 (8d0f1dd)
C            3.22471772686064        1.56315879745235        0.12779831111707
N            2.42797027189462        0.03734787485387        0.03848193375194
C            2.64267473001683       -1.36296163709414        0.11612022245328
N            1.43837610721893       -2.07799845211687        0.03764364035742
C            0.42922968453892       -1.18473548744076       -0.01262149880975
C            1.01415091993312        0.09378722172848        0.01424637926188
C            0.19275555214759        1.24355612448886       -0.01274623207926
O            0.56435748159886        2.42275764437722       -0.03482096731822
N           -1.20001772929664        0.96048115198585       -0.03273643474796
C           -2.07305901938229        2.11634724169853       -0.02255988439130
C           -1.78879936764224       -0.26061233050538       -0.05295805369977
O           -2.99578326684009       -0.40425972157678       -0.07049204372540
N           -0.93379638394596       -1.38522717964705       -0.05399645308698
C           -1.59924495766717       -2.67242124417336       -0.07863182547066
H            3.69296803145353        1.86213725333036        1.05787425174731
H            3.97037267879806        1.62024898680482       -0.66554222384717
H            2.38189027047133        2.23603524313278       -0.05867668032023
H            3.56396595735850       -1.90115981532940        0.05567144507419
H           -1.42436638146694        2.98685803352564       -0.06509452868570
H           -2.72951181726035        2.06832442903454       -0.87132388545944
H           -2.61690915292647        2.14303473535847        0.91076951774297
H           -1.35735935621812       -3.25574364269092        0.81145538980156
H           -1.32783705724556       -3.23173695543131       -0.97492271180078
H           -2.67379183613774       -2.45944155427944       -0.09292178027765
H            1.33057413426046       -3.09147201083755        0.02483393623136
