25
 energy: -4.687230545519 xtb: 6.6.1 (8d0f1dd)
C            3.21861751397776        1.27432974891705        0.09091509865668
N            2.34934329764824        0.10335737103735        0.04407601007537
C            2.62137197756764       -1.26843774322425        0.03821972576134
N            1.42315621830607       -1.96719820769759        0.00236359738273
C            0.40787856666997       -1.08682159235803       -0.01108540852225
C            0.94879600944783        0.19375762951808        0.01341211867057
C            0.13816678591551        1.34965503872947       -0.00656039319837
O            0.52017164345894        2.52351041451540       -0.00883294201013
N           -1.25026130451415        1.02629096586992       -0.03056670487175
C           -2.18079477625670        2.13878723145517       -0.04398574224148
C           -1.81421453610407       -0.21222960195573       -0.04807636677636
O           -3.01618249415841       -0.38598532669484       -0.07023914296427
N           -0.94088226815054       -1.31789429614778       -0.04097726374366
C           -1.50899173688819       -2.64657749235407       -0.06441037349853
H            3.72114521072334        1.38786215668578        1.06062562481854
H            4.00557245992770        1.20831597380645       -0.67133596267633
H            2.60571922691799        2.15786319007021       -0.08183571898179
H            3.58143927175746       -1.72070905160608        0.04612694096299
H           -1.59808811625893        3.05560117145027       -0.03180307582132
H           -2.78304862966647        2.09445973589740       -0.94409038727161
H           -2.81004222333491        2.09518902697689        0.83908555469566
H           -1.22440108374030       -3.21033046425521        0.82713494813239
H           -1.19719070411796       -3.18843847431009       -0.96041316852845
H           -2.59343875685556       -2.52614639003030       -0.07920172971925
H            1.32972409255266       -2.97074064005020       -0.01248780477177
