25
 energy: 39.523323990266 xtb: 6.6.1 (8d0f1dd)
C            3.33837697375150        1.85193499736331        0.12390575446978
N            2.38396872645198       -0.12976007135084        0.07189913841614
C            2.58911903594203       -1.42429086224453        0.10525236597359
N            1.40470718311414       -2.13624606433880        0.03378841845810
C            0.40246126234535       -1.21837153394061       -0.01523016999543
C            1.01658997863361        0.03509582522813        0.00966279127564
C            0.20917060745101        1.22935341350111       -0.02348458732257
O            0.57041797853445        2.38801012896194       -0.05458455954830
N           -1.18303899633751        0.95034456576287       -0.03523135198674
C           -2.05803825055579        2.10984591230964       -0.02148284782490
C           -1.78523339485508       -0.27112214488263       -0.05377154681517
O           -2.99092338053195       -0.39750999958361       -0.07002464166314
N           -0.95038589817483       -1.40344185821494       -0.05843275634020
C           -1.62691975213899       -2.67934676132181       -0.07967031457634
H            3.71385633447578        1.96041574758964        1.09299188594007
H            3.99677191635444        1.74768002405087       -0.69236786660519
H            2.39886134975749        2.32144630623833       -0.03145026595234
H            3.53730096999201       -1.93872366314713        0.06758780215532
H           -1.39589884216067        2.97079762008119       -0.08136431717048
H           -2.73904928713947        2.05018386963598       -0.84773973009639
H           -2.57410561339673        2.15021168825784        0.92440172164971
H           -1.38921118714852       -3.26349769728550        0.81158001198813
H           -1.36027125559922       -3.24056107226369       -0.97580687969928
H           -2.69699222822827       -2.44941437470567       -0.09240557499252
H            1.30307554145577       -3.14210619794451        0.02620428684891
