25
 energy: 7.411191669332 xtb: 6.6.1 (8d0f1dd)
C            3.19179503192979        1.42373569293754        0.09922389688247
N            2.41670021972051        0.08826394975564        0.07492227783510
C            2.65836544789511       -1.32237362800891        0.07575912811635
N            1.44966620021635       -2.02593705487800        0.01625799142626
C            0.43364382039625       -1.14016957824038       -0.01081717209970
C            0.99743143498526        0.13937658251027        0.01864561332172
C            0.17282883537212        1.28631327826887       -0.01195453207192
O            0.54404494593355        2.46282985525243       -0.02568119907972
N           -1.22040205789544        0.98558931474141       -0.03128520471780
C           -2.11433531522436        2.12572282165841       -0.03145091597345
C           -1.79855978359596       -0.24265236756646       -0.05109989842236
O           -3.00412154477176       -0.40259922375062       -0.07144044543503
N           -0.93002743810761       -1.35633752320132       -0.04978137807507
C           -1.56022525093764       -2.66010600011857       -0.07214440540675
H            3.69494413688390        1.64446662002058        1.04841664792296
H            3.97513125842862        1.46222879314364       -0.67162582341018
H            2.44908602613672        2.20316046844648       -0.07067542075872
H            3.58946524355749       -1.83026396818266        0.04961430202445
H           -1.48819627995096        3.01321443246158       -0.04683699080337
H           -2.72642090212393        2.08492179004539       -0.91302964922476
H           -2.69662549006867        2.12276435129673        0.87838205449504
H           -1.30376709185550       -3.23762222867253        0.81877866862182
H           -1.27564783486329       -3.21536830574678       -0.96793631012474
H           -2.64114555066091       -2.48781319168270       -0.08609820761593
H            1.32735494974543       -3.03562000711838       -0.00415207865135
