25
 energy: -42.094381521644 gnorm: 0.009501748313 xtb: 6.6.1 (8d0f1dd)
C            3.15225389641884        1.41586737761266        0.01903934622126
N            2.34792897675550        0.27680185561074       -0.00503522750822
C            2.58015349786376       -2.30253218293187       -0.01437347808178
N            1.29651010335251       -2.22787803694822       -0.01006675844605
C            0.46950763157483       -1.10917216047555       -0.00472209388711
C            1.06120728184614        0.17005801701020        0.00213463360970
C            0.13370586853288        1.35619204938216        0.00656533539309
O            0.54517807978565        2.49252201350131        0.01563806242803
N           -1.20092872633214        1.05311046263485       -0.00635906351418
C           -2.16183631922128        2.15111035790464       -0.00919791600508
C           -1.76661963866134       -0.20839277742878       -0.00655675790493
O           -2.95448028154007       -0.37773658800428       -0.00884887615549
N           -0.87430775335201       -1.29067047631885       -0.00329354573335
C           -1.46784277191703       -2.61600585722621        0.00298938760191
H            3.71066423817480        1.44963736120340        0.96069115689981
H            3.88275252833729        1.36247156678706       -0.79353912801740
H            2.55495071311637        2.33076830139354       -0.07521033591026
H            3.21631163461811       -1.42053114348024       -0.00919536708084
H           -1.61683771810872        3.09130270673106       -0.00265216393793
H           -2.78961321240678        2.08231830553194       -0.89734602709876
H           -2.80159534528874        2.07713556276690        0.86996758071613
H           -1.18868339871411       -3.16772030943393        0.90233044069943
H           -1.19986511644501       -3.17227508701598       -0.89704193253875
H           -2.55074702874504       -2.47996776311690        0.00884836041645
H            0.78266437445565       -3.11817501408972       -0.01359401426572
