  72
        -99.33415364
 N         -1.7342916756        3.1660235473        2.4197869715
 C         -1.7031446562        2.3880230209        1.4427127412
 C         -2.8500465423        2.1806455209        0.4873609753
 C         -3.2101772273        0.7166645323        0.4530491094
 C         -4.0513225714        0.2155620842       -0.5536018740
 C         -4.3349850881       -1.1209315844       -0.6621405380
 O         -5.1301057959       -1.6884700177       -1.5672181919
 C         -5.9131315921       -0.8867402122       -2.4267521604
 C         -3.6949517402       -2.1406254608        0.2512206027
 O         -4.6988810014       -3.0526907377        0.6447631924
 C         -4.2511815953       -4.3295444134        1.0255333298
 C         -2.9953169539       -1.4953322714        1.4063303663
 C         -2.7600047499       -0.1664771557        1.4608332001
 C         -2.3219163066        2.6472724577       -0.9000249899
 C         -1.4810132936        1.6206080430       -1.6835565382
 C         -0.2237901971        1.2065378783       -1.0089431684
 N          0.1543974269       -0.0434716328       -0.7638510061
 C          1.5125180111       -0.2126365516       -0.2500637475
 C          2.4978248630       -0.3994921935       -1.4167864304
 C          3.9231569476       -0.3057855618       -0.9462360464
 C          4.5952498088        0.9061296007       -0.9847756597
 C          5.9116813074        1.0038642200       -0.5628171521
 C          6.5850874276       -0.1124900431       -0.0869158068
 O          7.8619269368       -0.1381630531        0.3336947314
 C          8.6369360324        1.0366328752        0.2572655180
 C          5.8993705082       -1.3588785676       -0.0295149233
 O          6.6256032974       -2.3874708313        0.4468500204
 C          6.0471060929       -3.6689265339        0.5205278893
 C          4.5823547876       -1.4311009300       -0.4583179982
 C         -0.5271734976       -1.1526608182       -1.0027563870
 C         -4.1264137279        2.9944594003        0.8671101493
 C         -4.6788530409        2.5564721435        2.2213217538
 C         -3.9007375427        4.5030922748        0.8640371485
 H         -4.4970670580        0.9096050606       -1.2491860216
 H         -6.5503313962       -0.2035126517       -1.8593126997
 H         -6.5352780636       -1.5810060106       -2.9886695146
 H         -5.2879928505       -0.3164093933       -3.1209695063
 H         -3.6603115934       -4.3008080823        1.9489160483
 H         -5.1507734857       -4.9187829481        1.1965281767
 H         -3.6526838446       -4.7944295916        0.2311196139
 H         -2.6857557842       -2.1499374995        2.2044442221
 H         -2.2430404115        0.2447484369        2.3149983050
 H         -3.1722101287        2.9177434480       -1.5264703158
 H         -1.7264476052        3.5488746157       -0.7489271801
 H         -2.0933417605        0.7547309921       -1.9234119458
 H         -1.2129786365        2.1071376187       -2.6296252267
 H         -0.8143399320        1.8053537682        1.1469982655
 H          0.5013699115        1.9779942126       -0.8069771705
 H          1.5450225029       -1.0795644708        0.4112435602
 H          1.7980286595        0.6705769862        0.3246040556
 H          2.3113885506        0.3811637688       -2.1569125616
 H          2.3168821978       -1.3662909185       -1.8887343125
 H          4.0992887414        1.7872128677       -1.3626880116
 H          6.4102260076        1.9577723931       -0.6155705356
 H          8.2344061585        1.8251272332        0.9003991900
 H          8.7068089549        1.4032157673       -0.7711775813
 H          9.6279667809        0.7560387627        0.6087257655
 H          6.8258543144       -4.3180956821        0.9160845257
 H          5.1871474368       -3.6819297843        1.1975882062
 H          5.7427988904       -4.0291496147       -0.4669423020
 H          4.0590732929       -2.3739673368       -0.4329662331
 H         -2.9234824290       -2.6829369898       -0.3455177717
 H         -1.4961944315       -1.1205590955       -1.4533580249
 H         -0.0970813601       -2.0965959805       -0.7390968449
 H         -4.8786700573        2.7602414924        0.1046019086
 H         -3.9757891795        2.8071489610        3.0097358048
 H         -4.8690610308        1.4856714549        2.2427885580
 H         -5.6142366718        3.0736610593        2.4182940753
 H         -3.1388348607        4.7692052225        1.5897599545
 H         -3.6056235924        4.8693246024       -0.1152873968
 H         -4.8262498526        5.0006799551        1.1422693099
 H         -0.8935910199        3.2607285762        2.9806845502
