25
 energy: -42.107952620387 gnorm: 0.003041501555 xtb: 6.6.1 (8d0f1dd)
C            3.07025456715219        1.06774221875083        0.22295397571692
N            2.20299743184312        0.06433319715683        0.17252991892809
C            2.46474732655157       -1.26420477631349        0.19306201897498
N            1.30280800324238       -1.96686437574614        0.12175188015319
C            0.27317806554518       -1.08069254778286        0.06080612267836
C            0.81692112442565        0.19215967271260        0.09134068559170
C           -0.00807465145104        1.37798962394901        0.06054576735072
O            0.38748264543293        2.51864355086544        0.08225481259457
N           -1.36497320284881        1.04586855653666        0.00544771464516
C           -2.32330908504202        2.14149508593095       -0.00076731665498
C           -1.93048109067804       -0.21436517398775       -0.03951685024167
O           -3.11536807654367       -0.38736137112086       -0.09625385019632
N           -1.04603983874919       -1.31660857824989       -0.01327615535960
C           -1.59324706411281       -2.65749675851366       -0.05009608656217
H            4.12196760035023        0.85615270980754        0.29956820183148
H            5.45827315642377        1.77046589098834       -1.45359228039334
H            2.69192149310847        2.07399191838859        0.17379915874472
H            3.44140064001859       -1.69680507185327        0.25746844405297
H           -1.76980825688734        3.07744788491166        0.01082720305544
H           -2.95044857260064        2.08155425518873       -0.89046012520828
H           -2.96780002523611        2.07307951822420        0.87633259985267
H           -1.31210239351894       -3.21041918301026        0.84674876286783
H           -1.25118464057843       -3.18620245126511       -0.94045930875958
H           -2.67860353579255       -2.56724757547586       -0.08627669946839
H            1.23991989404544       -2.97441767849222        0.12643302370546
