25
 energy: -42.158056151998 gnorm: 0.005220966375 xtb: 6.6.1 (8d0f1dd)
C            3.24831351269908        1.22516890368228       -0.00428463170615
N            2.18728265631523        0.30115947180923        0.02328801571191
C            3.47825023012530       -0.24943405179703        0.07565619074750
N            1.17472963030561       -2.19276268774864        0.12417303171087
C            0.35088669138521       -1.22663513954475        0.06496116694655
C            0.90886231255041        0.11846864904530        0.01315673060180
C            0.04216373954928        1.31408945687814       -0.05838092654310
O            0.50811500855208        2.43111411266241       -0.09467968273646
N           -1.30321135330569        1.04521986218945       -0.07928765011125
C           -2.23126672454459        2.16099615495450       -0.14663655005145
C           -1.88232308456976       -0.21959212481463       -0.03087955006937
O           -3.07640514470644       -0.35124361466165       -0.05064922138682
N           -1.02562081243074       -1.31320072044692        0.03916719592571
C           -1.63931983243489       -2.63010338182902        0.08189237726758
H            3.79304852602647       -0.70676501700335        1.00151795859800
H            3.42264219456571        1.74784080046330       -0.93962417266462
H            3.36855749356910        1.85771072057083        0.86862993746726
H            3.80834281913652       -0.78653168865004       -0.80695614371588
H           -1.65953232398080        3.07446251543171       -0.29462855779120
H           -2.93077102599356        2.00668747109385       -0.96846927284905
H           -2.80528383592364        2.22473389866369        0.77921987039867
H           -1.37499401679116       -3.14215071022736        1.00868369825650
H           -1.31791216309949       -3.22542636713522       -0.77449235225955
H           -2.71970144177648       -2.50206065046675        0.04138595415224
H            0.83557845887693       -3.14350732151965        0.15840820200048
