  25
        -42.17264524
 C          3.3019826894        1.0370509956       -0.0285633088
 N          2.2673982152        0.0400720210        0.0109365859
 C          2.4429458972       -1.2897870293        0.0423594123
 N          1.2328561707       -1.9086862311        0.0487680912
 C          0.2673412568       -0.9357505029        0.0235190066
 C          0.9181642492        0.2918754559        0.0055651324
 C          0.2101164086        1.5523421255       -0.0177477884
 O          0.7000921430        2.6651358761       -0.0746893444
 N         -1.1685632268        1.3460684870        0.0389084458
 C         -1.9758365980        2.5479958601        0.0223473348
 C         -1.7738742743        0.1351323643        0.0884903632
 O         -3.0910583342       -2.2313704756        0.0033788549
 N         -1.1017228708       -1.0542532718        0.0108037102
 C         -1.7380957369       -2.2324160126       -0.1294826713
 H          3.9628022308        0.9323949946        0.8314098411
 H          3.8916232883        0.9339490708       -0.9403802208
 H          2.8339259373        2.0206356814       -0.0131278221
 H          3.3878284256       -1.7909018168        0.0541745589
 H         -1.7966743465        3.0838486891       -0.9100347175
 H         -3.0283239893        2.3029078621        0.1142189041
 H         -1.6676393572        3.2002252545        0.8393208656
 H         -3.4962413322       -2.8672322492       -0.6047663011
 H         -1.1792692563       -3.1517469607       -0.0894903072
 H         -2.8450009622        0.0842648330        0.1521679266
 H          1.1032731087       -2.9064022502        0.1006434512
