25
 energy: -42.182109750953 gnorm: 0.007822360633 xtb: 6.6.1 (8d0f1dd)
C            2.95440372518204        1.81889061177250       -0.05019121555470
N            2.35021401783379        0.70808961958696        0.04361558097656
C            2.71685563221757       -2.01560957754872        0.22404517541785
N            1.42479691261204       -1.96748899411260       -0.07329575378155
C            0.57960149243541       -0.88673305216534       -0.02467566167342
C            1.02427775387069        0.44401895557743        0.02318864794610
C            0.04668500936414        1.53412656796733        0.04388882037458
O            0.35686224862092        2.70900560962252        0.08397494314537
N           -1.28252962461383        1.14443527270081        0.00476021131092
C           -2.30563072730400        2.17597739165967        0.02965228522861
C           -1.73723065658601       -0.15187061347579       -0.04438732454160
O           -2.91315971168763       -0.41611079850630       -0.06616822060593
N           -0.76588793957257       -1.15735116092507       -0.06746049980936
C           -1.26554598853684       -2.52115638189459       -0.08160574468443
H            4.02979154695853        1.81131666973899        0.03238157543918
H            3.21584304001250       -1.13312796301810        0.59582826562826
H            2.45012595887408        2.78183604999572       -0.19097676586807
H            3.24258943641794       -2.94172560206454        0.08070844916558
H           -1.81377959411770        3.14537085127538        0.08262768902206
H           -2.91858750553069        2.11124779938302       -0.87066841788514
H           -2.95435135227569        2.03156650079928        0.89453178316350
H           -0.88959783488410       -3.08555337758887        0.77277941830573
H           -1.02387245551436       -3.02578535413086       -1.01935702901895
H           -2.35275319638756       -2.46259722789877       -0.00662480221638
H            0.99131132671054       -2.83253325515063       -0.38539979158435
