  72
        -99.33156425
 N         -1.3696977042        2.9953966451        2.0418254568
 C         -1.7959691039        1.9927450874        1.4266704421
 C         -3.0175675994        2.0041767619        0.5474680215
 C         -3.8462047556        0.7631303953        0.8646209368
 C         -4.8247008833        0.3295176054       -0.1241789317
 C         -5.0660297978       -0.9613989142       -0.4541065031
 O         -6.1044896666       -1.3910873558       -1.2074370959
 C         -7.1237796022       -0.4807404686       -1.5545041691
 C         -4.1455317550       -2.0715698475       -0.0851755783
 O         -2.9363210371       -1.8625769304        0.0548980754
 C         -4.0228564980       -4.4768803867        0.3132912466
 C         -4.7548696948       -3.3901843407        0.0458702680
 C         -3.7812220014        0.1626539121        2.0553748880
 C         -2.5130708379        1.9326369076       -0.9169846909
 C         -1.7201113372        0.6626243668       -1.2348970424
 C         -0.3259863541        0.7157761136       -0.7615772929
 N          0.4548869763       -0.3340651871       -0.6538733614
 C          1.8341843777       -0.2036532744       -0.2464046073
 C          2.7977248333       -0.3276198437       -1.4417060877
 C          4.2204696400       -0.2116440938       -0.9698840397
 C          4.8960977875        0.9960544651       -1.0308118087
 C          6.2030735486        1.1016845785       -0.5801950174
 C          6.8592472845       -0.0000992357       -0.0498864883
 O          8.1220174084       -0.0158188993        0.4116582455
 C          8.8937726132        1.1617823853        0.3498426651
 C          6.1696667591       -1.2431397772        0.0264427503
 O          6.8778929342       -2.2588900764        0.5559305458
 C          6.2886091399       -3.5333902659        0.6572202854
 C          4.8650143874       -1.3244957050       -0.4336396740
 C          0.0036078262       -1.6516718140       -1.0304051490
 C         -3.9152618226        3.2636811965        0.7374080884
 C         -4.4035838739        3.3958269764        2.1778079358
 C         -3.2382769406        4.5659724694        0.3140035054
 H         -5.4378283464        1.1094405022       -0.5535821638
 H         -7.5206349267        0.0272549922       -0.6708520072
 H         -7.9075624697       -1.0780751448       -2.0165594001
 H         -6.7665712352        0.2612125760       -2.2749533507
 H         -4.4658916708       -5.4501942056        0.4201453650
 H         -5.8199840139       -3.4408504851       -0.0767502876
 H         -2.9517145432       -4.4060612776        0.4309129395
 H         -4.4133314271       -0.6756563553        2.2934899440
 H         -3.1155910852        0.4923907355        2.8335711074
 H         -3.3811509211        1.9771328611       -1.5749457463
 H         -1.8933196183        2.8061353949       -1.1199529528
 H         -2.2284142382       -0.2112626451       -0.8056141749
 H         -1.7165902650        0.5061358683       -2.3211080201
 H         -1.3005846999        1.0088220392        1.4457054185
 H          0.1062033990        1.6745914663       -0.5123280183
 H          2.0620551048       -0.9844348396        0.4842984259
 H          1.9833194569        0.7666493175        0.2315441534
 H          2.5768306426        0.4643141005       -2.1588890997
 H          2.6477907151       -1.2901277839       -1.9327629998
 H          4.4109586265        1.8667845091       -1.4446527834
 H          6.7062099240        2.0519564625       -0.6504861845
 H          8.4515677581        1.9625971377        0.9500932307
 H          9.0190765302        1.5039179650       -0.6817298025
 H          9.8649815790        0.8958678881        0.7625883390
 H          7.0504492955       -4.1731682613        1.0982035644
 H          5.4090236361       -3.5179846930        1.3087825263
 H          6.0109950198       -3.9265722625       -0.3256303368
 H          4.3389276345       -2.2654969503       -0.3929118487
 H         -0.1456640483       -1.7138872364       -2.1102562482
 H         -0.9453913732       -1.8868936876       -0.5445820689
 H          0.7432701579       -2.3896689388       -0.7327862355
 H         -4.7921109292        3.1203158342        0.0951177280
 H         -3.5674986645        3.6102564265        2.8367210711
 H         -4.8955838422        2.4869672559        2.5155003333
 H         -5.1148128077        4.2145398407        2.2488255812
 H         -2.3025223407        4.6919070285        0.8490846786
 H         -3.0547210054        4.6020178624       -0.7563838983
 H         -3.8892815690        5.3998309321        0.5637243159
 H         -0.5289584830        2.8851056950        2.6004445493
