25
 energy: -42.242165374944 gnorm: 0.006604609802 xtb: 6.6.1 (8d0f1dd)
C            3.32355021932250        1.55968518441376        0.02368358226065
N            2.56608625690650        0.33351662137334        0.03037695570340
C            3.03599962782667       -0.90179482521753        0.05753310210971
N            2.02294313884565       -1.78634464646311        0.05961210394148
C            0.85272214822844       -1.08761117353700        0.03258720762282
C            1.19608740513143        0.25956784001309        0.01508323046585
C            0.17671596827786        1.28391463789390       -0.01952675222312
O            0.34750390538889        2.47695396854361       -0.04422399518931
N           -1.10508180390793        0.69996347599458       -0.02354319935723
C           -2.24891117815163        1.59652610908947       -0.05082881391569
C           -1.32756572307769       -0.64403610848353       -0.00822966676081
O           -2.58848180675488       -0.98579948602145       -0.02896228614438
N           -0.39228061219039       -1.56554216614699        0.02022128972337
C           -2.89100833935147       -2.38361863812055       -0.02183819171341
H            3.86840150821613        1.67521082364709        0.96149288020313
H            4.03777008423691        1.56178137154732       -0.79940767617433
H            2.62982024630787        2.39311236927149       -0.09085796422552
H            4.07588337766817       -1.16793196278730        0.07482775168820
H           -1.86848988057139        2.61638214071029       -0.04941789763473
H           -2.84024343138744        1.42088462026921       -0.94802055384299
H           -2.87373397000536        1.42974311722989        0.82508390742634
H           -2.54295582934062       -2.84707937652269        0.90439807217281
H           -2.41717464771222       -2.88087076207838       -0.86796933853437
H           -3.97815957954772       -2.44437729392304       -0.09821091734116
H            2.10103442973801       -2.79399729909723        0.07730878764110
