25
 energy: 3.434705264701 xtb: 6.6.1 (8d0f1dd)
C            3.36262733528742        1.14202143808602        0.08419743172631
N            2.35748688971464        0.13242187294260       -0.03115363931313
C            2.58643649755082       -1.22777596987633        0.12123680267523
N            1.37768606279337       -1.87936603648256        0.09300341236892
C            0.41334323371433       -0.95204318320358       -0.03823633745670
C            0.94935585041772        0.31791135171670       -0.10299529216608
C            0.07616563188970        1.44614695810078       -0.18751846071529
O            0.44909865528829        2.60989277340525       -0.29537180910932
N           -1.33463134345361        1.15004002687365        0.06085982622696
C           -2.42419378733273        2.10403666088087        0.09686116839947
C           -1.78227924641431       -0.12463387173991        0.25350803906612
O           -2.93534205714100       -0.37608459354199        0.52530130789212
N           -0.92023926478132       -1.18148224603954       -0.07292867083535
C           -1.42750452186017       -2.54323825612473       -0.20206200749591
H            3.70417954305031        1.27500137252680        1.11835249972710
H            4.23003434135334        0.90467165921135       -0.54887877693446
H            2.94850900558518        2.08381430986064       -0.23912628311039
H            3.53713744553899       -1.69520483666759        0.19330648565794
H           -1.93514684299844        3.07225745653454       -0.05096045394059
H           -3.11354315703986        1.92247213059860       -0.74345573322204
H           -2.92510635962437        2.01891428468340        1.09111056308898
H           -1.05331594212246       -3.20184067217058        0.59116349556525
H           -1.14162137857265       -2.94485851992805       -1.17884029428371
H           -2.51308627776816       -2.50930547963834       -0.14239951943216
H            1.24094331366249       -2.88035801980386        0.12506958554104
