25
 energy: 96.246479927621 xtb: 6.6.1 (8d0f1dd)
C            3.60951589391759        0.93199597549163        0.08329695756877
N            2.49679237390996        0.01846561513812        0.00397402738851
C            2.65020888062132       -1.31531405841773        0.24267601154968
N            1.42981369922574       -1.92269138188580        0.21439794816867
C            0.47910656150736       -1.00299372346534       -0.12127642203061
C            1.11539910686953        0.29050672133989       -0.21425779127697
C            0.42337676865003        1.40820448849314       -0.53256777073444
O            0.23605843479196        2.43010901983262       -1.10857020092914
N           -1.94124302502874        1.49398533165381        0.06602004655178
C           -3.18446077979256        2.15252476002324        0.08069067077780
C           -1.72620826871225        0.50029732934521        0.73851354072311
O           -1.99040954257725       -0.12097173339062        1.70583242726677
N           -0.76024252440750       -1.12478797507400       -0.37434075702992
C           -1.34710587907008       -2.40333150608905       -0.62088934985160
H            3.59840492207148        1.48460191840170        1.02255766397580
H            4.50656151603570        0.30164608141512       -0.06561888857607
H            3.58602665562000        1.76798966018235       -0.62152955956858
H            3.44187729587292       -1.67942291404448        0.85186989382321
H           -2.90275491406154        3.10587209132968       -0.30539602970774
H           -3.74411493331175        1.51219294970920       -0.55797152862509
H           -3.70136900237177        2.16880224532124        1.04303812964629
H           -0.86299315893932       -3.24197383983628       -0.06768292425036
H           -1.23931124552059       -2.47089922127971       -1.70824333029701
H           -2.41132209674783       -2.43887619566670       -0.39480452248023
H            1.20926850520641       -2.81393062742836        0.60595339852744
