25
 energy: 11.766667266632 xtb: 6.6.1 (8d0f1dd)
C            3.40262956377909        1.12004609974340        0.07573175259833
N            2.37307609724325        0.13748736710400       -0.05923281738251
C            2.57474410431127       -1.21674836572935        0.17659256460156
N            1.36239776505472       -1.85175666504056        0.14923547824497
C            0.41664743508884       -0.91900054528932       -0.04835601363417
C            0.95602741705247        0.34556869953690       -0.15386452220357
C            0.05437307594335        1.46371801277699       -0.27122771662428
O            0.42154303723174        2.61888279920336       -0.43421509265021
N           -1.37226200997037        1.19616232908363        0.07628873583094
C           -2.50735342692230        2.10054469398535        0.12932293322521
C           -1.75561042331778       -0.08788670910044        0.35060857612307
O           -2.85963149473775       -0.36691017167704        0.76466900946145
N           -0.91655511575000       -1.13901146244465       -0.07837100856340
C           -1.40925713153631       -2.50950616395889       -0.25419530105178
H            3.69486981788160        1.30350336585225        1.11073612448315
H            4.29721550263113        0.82196006903034       -0.49206923172833
H            3.04345623053102        2.06240113458376       -0.29824535166219
H            3.51107560394593       -1.70371241249214        0.28248473781068
H           -2.08051597754939        3.08214654652660       -0.07923774402592
H           -3.21246087448471        1.85576621520776       -0.67218607076671
H           -2.99604129138571        2.06683948694796        1.13007158889321
H           -1.01844605988660       -3.20552096512939        0.50229782410088
H           -1.13932016834176       -2.86391396695653       -1.25566355690636
H           -2.49222495654221       -2.50075038815603       -0.17596267236118
H            1.20344040243604       -2.84883396302700        0.20766023447983
