25
 energy: 91.800509311158 xtb: 6.6.1 (8d0f1dd)
C            3.61918067632478        0.91279335378331        0.08669966536095
N            2.51721975213747       -0.00841184538871        0.00494938540032
C            2.67589944122356       -1.34298490788681        0.22815680583310
N            1.45676451849435       -1.95351237447284        0.18181711358502
C            0.50273872471946       -1.02906738547033       -0.15731787423753
C            1.15357778121211        0.26413013142348       -0.24741026753663
C            0.47756437550037        1.38914515301558       -0.56184272726907
O            0.21986562801037        2.37215229556972       -1.19030280030810
N           -2.04409352964427        1.56188960181543        0.09161334755050
C           -3.29124912851703        2.18978425365779        0.06450937786084
C           -1.72358296487754        0.62653123065081        0.78193523445887
O           -1.80301164342785       -0.01737348478159        1.76292270199846
N           -0.72833437772761       -1.13944342728202       -0.42161627260054
C           -1.36293200746724       -2.38461689158737       -0.64983375430496
H            3.56224134735885        1.51925954218175        1.00050787716111
H            4.49728535994201        0.26425222144691        0.02429925282648
H            3.64749587109695        1.70442433350586       -0.67250060581023
H            3.46953040676593       -1.64426151462251        0.87227684594543
H           -3.01350342984767        3.14430290951242       -0.32195054927127
H           -3.81420218470731        1.57290474951079       -0.62694758487219
H           -3.82622156269020        2.18953887283294        1.01806765551902
H           -0.85604370337297       -3.24224491855913       -0.14964974500577
H           -1.29976485261547       -2.44491111076894       -1.73542076424762
H           -2.42108021301725       -2.41033168408566       -0.38370454856070
H            1.24230608844263       -2.85711872452171        0.54322725344805
