25
 energy: 55.020440801855 xtb: 6.6.1 (8d0f1dd)
C            3.51228025029884        1.02741868874524        0.06896450293864
N            2.41040204558627        0.11058833173865       -0.05416332180888
C            2.57219181394226       -1.21981189313825        0.27850007072798
N            1.35204831959272       -1.81487418294276        0.30376397157255
C            0.43727657073821       -0.91314056697281       -0.05392516025708
C            0.98124740175887        0.35463148705558       -0.23533167008407
C            0.05726296420583        1.45671461408556       -0.48005169067484
O            0.33003372494249        2.57952388478588       -0.84530079792313
N           -1.54728410073486        1.29314083498093        0.04743735151982
C           -2.77629227642837        2.09053868714971        0.12701809999652
C           -1.66102700789684        0.05081317553221        0.54757109745009
O           -2.51599850643611       -0.30937627446791        1.32329642540813
N           -0.89109979710967       -1.06152834148605       -0.18892100668196
C           -1.36732510263382       -2.43261776193394       -0.43169402817126
H            3.64363422859694        1.39695782342757        1.08039042672103
H            4.44279467269756        0.53812951661887       -0.28255551556354
H            3.33634883536166        1.94054762910830       -0.47366946327619
H            3.44822522296783       -1.71833985329993        0.59059483452065
H           -2.50463125632228        3.08669961850191       -0.18944691045746
H           -3.49564326543809        1.63511496745754       -0.51378839353276
H           -3.28945471665432        2.12801945635848        1.10358319511036
H           -0.92873836342848       -3.21613611361018        0.22269480734456
H           -1.14743152459186       -2.64889127797874       -1.48833110022514
H           -2.43900643350861       -2.47853435462333       -0.29222563968475
H            1.13209334579671       -2.77778992780186        0.48455259041014
