25
 energy: 60.074606701994 xtb: 6.6.1 (8d0f1dd)
C            3.72888087833918        0.77769873512630        0.20299020018509
N            2.72196925868984       -0.21814425008901        0.04080430822257
C            2.83211371757294       -1.53603527576491        0.33311321868351
N            1.64381437000734       -2.14602132548776        0.07276095326683
C            0.68817012197661       -1.22681661726862       -0.34262892472044
C            1.40522924105542        0.04988111819373       -0.37013493600565
C            0.91022176557218        1.23906407611655       -0.65875628040205
O            0.52829234117162        2.28796331837107       -1.06074215320989
N           -2.74222042737251        1.58126942171640        0.38713819175677
C           -3.85561249036360        2.39688485807986        0.13553026543449
C           -1.77155810842284        1.26210588509649        0.98236766359442
O           -0.90158738580468        0.75083256248219        1.55861711226726
N           -0.51799343173574       -1.37719617780445       -0.69798420478707
C           -1.22999056358955       -2.60909082333536       -0.67978369279709
H            3.47691636786149        1.47927921420766        1.00550474258209
H            4.64598935164656        0.27645245097270        0.48204113459692
H            3.88794333064314        1.30987427475648       -0.74837625076898
H            3.70382896130447       -2.00153845981401        0.71150255045952
H           -3.52882192268901        3.42283290468530       -0.04296769394184
H           -4.35012286952291        2.00156895452156       -0.75177999827250
H           -4.54122443458721        2.35936681512276        0.98951961506275
H           -0.84418358392065       -3.33821615029663        0.03426170287527
H           -1.20522845436454       -3.03529466229197       -1.68493449788177
H           -2.27119319804457       -2.39750590333523       -0.43315802204219
H            1.46268080969701       -3.11657553901648        0.21929501976086
