25
 energy: 68.159625320241 xtb: 6.6.1 (8d0f1dd)
C            3.66362001459626        0.84682508780972        0.17008156755730
N            2.64221011844908       -0.14269948057379        0.02469739173707
C            2.76931859534017       -1.46448278774936        0.27612550448189
N            1.57293296986738       -2.07885081061057        0.08844438205743
C            0.61668418739428       -1.14964145209374       -0.28422599081952
C            1.31689092110999        0.12445882307250       -0.33373224169869
C            0.74261127346879        1.29354059686574       -0.62292359922767
O            0.49414209623530        2.28865041939567       -1.24328370995031
N           -2.57840318142476        1.53195911727094        0.26890041257125
C           -3.69086754073178        2.32793625081411        0.10014583524952
C           -1.72995595656347        1.08854469291415        0.96553947789465
O           -1.11560814956171        0.49385395300924        1.75702827067380
N           -0.59809951496162       -1.27746277550233       -0.60214179831489
C           -1.28693876780431       -2.50715499758451       -0.65543977724838
H            3.45711090125703        1.54791299851045        0.97781232818333
H            4.55734760820741        0.29688919149428        0.39878266800652
H            3.80619414724836        1.44578397014843       -0.73978456096606
H            3.62237095351489       -1.88973052167227        0.71094462976883
H           -3.35107451108461        3.33119554482855       -0.13299795734362
H           -4.18036783553258        1.86842770676647       -0.74192702516502
H           -4.31842880701289        2.29151020465253        0.99539849854393
H           -0.84348992159641       -3.26542047881472       -0.04534820368315
H           -1.23443684419350       -2.83390778048371       -1.68735681247801
H           -2.33607830078234       -2.39341719481445       -0.38825371300284
H            1.36425560234856       -3.03375484169160        0.28798213756777
