25
 energy: 77.052660121588 xtb: 6.6.1 (8d0f1dd)
C            3.54592075604574        0.99614173808533        0.07627066296723
N            2.42959822069537        0.09106477387553       -0.02052598798704
C            2.59344094399908       -1.24987052731371        0.25950717000219
N            1.36954720720650       -1.83889699642407        0.28200466910220
C            0.44750349592141       -0.93405736889436       -0.06078983645270
C            1.01072245553322        0.34656875590010       -0.20490509565166
C            0.16662018332421        1.45870083240179       -0.48904627067727
O            0.31645491213571        2.55507973354614       -0.95536246332916
N           -1.65256991238695        1.33410831349967        0.03321473154362
C           -2.89043861838946        2.09733683144824        0.12257181746795
C           -1.65012790086552        0.15047636406412        0.59586035270584
O           -2.35796841411861       -0.26852814022502        1.47056513581497
N           -0.86103294238098       -1.06043723174744       -0.23213832722861
C           -1.35824867260722       -2.41348036244934       -0.49309309998813
H            3.62386537006954        1.43229556067079        1.06866239895881
H            4.47060792587464        0.45297274388203       -0.20972820866770
H            3.42669511456023        1.88616895318238       -0.52515000648062
H            3.43665053798863       -1.72058786573529        0.68734196323007
H           -2.63724735179023        3.08395650495306       -0.22918174678375
H           -3.57910197427280        1.55014923103461       -0.47062030517345
H           -3.40815254575885        2.13818983630604        1.09264021937895
H           -0.90359974178067       -3.22044314735579        0.12744256474432
H           -1.15712519365579       -2.58295655030157       -1.56311690024548
H           -2.42735809061279       -2.46885758459584       -0.33014844268659
H            1.12543401594042       -2.76703885560619        0.56232339386484
