25
 energy: 80.179613605748 xtb: 6.6.1 (8d0f1dd)
C            3.63928994219635        0.87378555833913        0.12180348732575
N            2.57321904538527       -0.07703404678274        0.01207924248262
C            2.72301846755680       -1.40954047774061        0.22663442729742
N            1.51088175131330       -2.02077759582333        0.12670516461948
C            0.55638335621501       -1.09189151581718       -0.22321449380705
C            1.23466951264733        0.18887753362046       -0.29610646822872
C            0.58231711723976        1.32032551702552       -0.58749607214816
O            0.28417200017652        2.27558554791765       -1.24230406147979
N           -2.30545550554734        1.57915295805724        0.15081103220383
C           -3.50134897966427        2.25873465941135        0.06782393029629
C           -1.71277316958948        0.84707101905530        0.86766442392401
O           -1.42369866392814        0.20123928032786        1.80209047025827
N           -0.66608079361609       -1.20012849131475       -0.50833449473770
C           -1.34376419144130       -2.42567691424458       -0.64045736535417
H            3.49465708012810        1.56630304252778        0.95583582149272
H            4.51281020863837        0.22355655380174        0.23123344284561
H            3.75249757192014        1.54874553666084       -0.73462516341541
H            3.54210882751421       -1.76013073780613        0.79059939075103
H           -3.19943024256925        3.23975325505816       -0.26160116002489
H           -3.99616257786942        1.71748221495823       -0.71158841597750
H           -4.07522034393846        2.23097980599128        0.99969913228901
H           -0.82628463096280       -3.26304341486715       -0.21648732470356
H           -1.30641874180908       -2.61280000627439       -1.70575403725806
H           -2.38984569798060       -2.39575254319358       -0.33751404421194
H            1.29618354700996       -2.94782334631013        0.42610824597688
