25
 energy: 86.130791548466 xtb: 6.6.1 (8d0f1dd)
C            3.63174148686646        0.88189277919986        0.09458263652868
N            2.54408341978183       -0.04577909106873        0.00432366921022
C            2.69902690104438       -1.38174846795946        0.21420251305379
N            1.48141826678113       -1.99093038349992        0.15557261096899
C            0.52848572976216       -1.06249756151342       -0.18764094097745
C            1.19496680592388        0.22332963295399       -0.27182080016540
C            0.52372213188878        1.34711758274909       -0.56246212963817
O            0.21872264686122        2.31296622229536       -1.19043352207782
N           -2.16820154812454        1.58481085257585        0.11090894126850
C           -3.40047018189095        2.21865485497618        0.05873007685656
C           -1.71564495928102        0.73424900862588        0.81453680526823
O           -1.60979513698362        0.08901517862406        1.78997828572457
N           -0.69826205827594       -1.16568424571942       -0.46071067926541
C           -1.36496786142790       -2.39593707280266       -0.62693059029838
H            3.53538290044651        1.53927238758759        0.97286416735586
H            4.50407776281564        0.21763660899178        0.12094923796984
H            3.71476230189090        1.62603727775967       -0.71124284249599
H            3.50744031982832       -1.69216433262589        0.82364259009127
H           -3.11819946345134        3.18810341129399       -0.30458984980920
H           -3.90951241709624        1.62934037972387       -0.67554052995195
H           -3.95060680664866        2.20244246281277        1.00466380195520
H           -0.84544538569458       -3.24947666570133       -0.18025182659438
H           -1.31246928271663       -2.52328241931193       -1.70495038260626
H           -2.41864501920665       -2.39435231886559       -0.34396537084188
H            1.26870586660043       -2.90596523051657        0.48751870890622
