25
 energy: 59.210771903035 xtb: 6.6.1 (8d0f1dd)
C            3.74801237929540        0.75848162911949        0.21930323558510
N            2.73271116325772       -0.23244963636855        0.06565748760205
C            2.84328161204226       -1.54813961884807        0.34586498282864
N            1.65477504202075       -2.16024071698935        0.09456105721559
C            0.70630326653302       -1.24473569535629       -0.35488907163553
C            1.42371014591655        0.03303373227168       -0.37159269268626
C            0.94705023881695        1.22437526002279       -0.68052371133036
O            0.48700793805832        2.27026209219931       -0.98545811081832
N           -2.79978034238961        1.56415085181171        0.42872792240977
C           -3.89348704861749        2.40602894592909        0.16111934363857
C           -1.80527417481418        1.27092805371729        0.99497967317829
O           -0.83240575639758        0.82167340469255        1.44181643248392
N           -0.50286035123898       -1.40273562938331       -0.70134257343210
C           -1.21347287799922       -2.64054996011571       -0.68212074154105
H            3.49232359737633        1.44216129931888        1.03352611474383
H            4.69879180277025        0.27725148986992        0.44356350421230
H            3.84822234241327        1.33998153063614       -0.70049754563019
H            3.72775246564954       -2.02547280000232        0.69570623989521
H           -3.56807678652267        3.43380290978247       -0.01478777162414
H           -4.38012742149248        2.02684229405825       -0.73830748684140
H           -4.60604870688295        2.38479813793306        0.99016732526399
H           -0.84330055399313       -3.37904920548523        0.04030953563086
H           -1.19815531202173       -3.08564529423585       -1.68239161859851
H           -2.25195811285128       -2.40230472202043       -0.44327909394176
H            1.49721975604377       -3.14341956381299        0.22692147558610
