72
 energy: 36.732713494835 xtb: 6.6.1 (8d0f1dd)
N           -1.56516729734671        2.94629782390829        2.11621867079408
C           -1.66120472197556        2.22960860681863        1.09206289043067
C           -2.88059782114339        2.11100287084676        0.22945095272800
C           -3.42337925322904        0.69138237888678        0.31256832795118
C           -4.41895044264279        0.27410600087668       -0.57408486300260
C           -4.94814726339876       -1.00119431442774       -0.51720039315955
O           -5.92232188307451       -1.48703695605826       -1.33739650614872
C           -6.51175866954854       -0.62493345126368       -2.27671790818055
C           -4.47404464732413       -1.91088698862143        0.45468242411337
O           -5.05398998884985       -3.14316518254923        0.43483584444695
C           -4.69024624493226       -4.06879416033900        1.42654903533289
C           -3.49262390929386       -1.49396964963715        1.33369329165894
C           -2.97449238582176       -0.20626208008668        1.26263727362223
C           -2.38409582409125        2.39221718428912       -1.21285460743383
C           -1.50295171774321        1.28975969052435       -1.80849709824989
C           -0.10189744516150        1.16555119924735       -1.25178791262501
N            0.55405842205955        0.09630062254670       -0.99233394446896
C            2.42250055481810       -0.33481576962403        0.12626753881460
C            3.15906420368073       -0.72453539403996       -1.09396057702186
C            4.54529771164372       -0.53250090881372       -0.56605555480551
C            5.20237544789299        0.67040275672711       -0.76634990131954
C            6.53633548822725        0.79679311627388       -0.42789541342961
C            7.20721166857043       -0.27346312700569        0.12716954958931
O            8.52170979681217       -0.27310392911454        0.48303491107043
C            9.27960844441155        0.88160798275523        0.23805587521625
C            6.51695960585525       -1.47855782692561        0.37745276174482
O            7.25734103578333       -2.47323264679389        0.93026850118869
C            6.65424074126567       -3.71947472872931        1.14892898028197
C            5.19190152777726       -1.59410195574270        0.03834725542718
C           -0.13212498984357       -1.17891246773587       -0.93806087948885
C           -4.01342272257652        3.09455299215471        0.62208866996843
C           -4.55005812380478        2.77938152504176        2.01654725611991
C           -3.59318275666515        4.56072247961560        0.56103995558796
H           -4.78927931282369        0.96431424619803       -1.31476967004289
H           -6.97496292751482        0.24407322761276       -1.79650334291030
H           -7.28467197428480       -1.21422020380208       -2.76916548309429
H           -5.78775331258114       -0.28484120403246       -3.02506879054151
H           -4.90393394333457       -3.69018455156992        2.43230487185978
H           -5.30056157908542       -4.95080577984920        1.23972490861113
H           -3.63107107971259       -4.33966724863362        1.35697680099709
H           -3.12058498251276       -2.15982412531569        2.09417266517647
H           -2.22464717783495        0.09314270612407        1.97706019613938
H           -3.25519063754526        2.51820225276662       -1.85942910228839
H           -1.82506099421213        3.32914847155009       -1.21883557090505
H           -2.03074082929567        0.33969490141785       -1.75630874262439
H           -1.34956388877351        1.52054153260417       -2.86733400701876
H           -0.84144763596578        1.64287264828070        0.65944664083726
H            0.47594981044532        2.09065573282786       -1.25306757243629
H            2.39165070659332       -1.06971433252061        0.92298164864045
H            2.50284066226539        0.71242825040582        0.36110068821590
H            3.00408182987538       -0.10625170108018       -1.98369430780684
H            2.95462738654431       -1.75678363189391       -1.36247826660604
H            4.68853114017326        1.50886571080970       -1.21012708887564
H            7.04904196084818        1.72219878460524       -0.63148216527635
H            8.89479299399191        1.74728416700115        0.78488841101101
H            9.32531050409976        1.12337072140900       -0.82970020900921
H           10.27966319014101        0.65099374865998        0.60097959931881
H            7.44622268761872       -4.35503009609949        1.54400684307470
H            5.85735640964439       -3.65619403692797        1.89190938124550
H            6.26606997840109       -4.15696138568625        0.22215580651611
H            4.64265737864330       -2.50482607257577        0.20637744559106
H           -0.19553632423487       -1.56176430730148       -1.94694701923825
H           -1.14129969280396       -1.12684669589951       -0.51754691838772
H            0.40176299711021       -1.91888233940825       -0.36440237040806
H           -4.82500962049546        2.94669442606950       -0.09983973196595
H           -3.77262221806154        2.93946595926662        2.75787125383119
H           -4.89365080775844        1.74936831296185        2.07704583686006
H           -5.38562323869470        3.43697065302784        2.24441164584454
H           -2.76348356935568        4.73841210952079        1.23422868022580
H           -3.31644838773243        4.85827330599985       -0.44627654092358
H           -4.42286800132647        5.18849331458969        0.87549461953713
H           -0.65522843946893        2.94519325357609        2.57189691647690
