72
 energy: 21.061674208926 xtb: 6.6.1 (8d0f1dd)
N           -1.64384631169795        3.15890785475773        1.90127120266186
C           -1.80046069227778        2.31763364768165        0.98590034167206
C           -3.07421135056135        2.18070709576218        0.20006274331244
C           -3.58373532355690        0.75196312620120        0.28580754936193
C           -4.59165225473406        0.31275802901809       -0.57566762043611
C           -5.09625007656632       -0.97144974185481       -0.49778695183340
O           -6.08018417142725       -1.48057931828203       -1.29281659351800
C           -6.68272206798531       -0.64580120654872       -2.24760697992921
C           -4.58798615324585       -1.86454955402063        0.47220972080725
O           -5.14645005612888       -3.10689130427892        0.47518144131881
C           -4.72465170645020       -4.03006081629821        1.44598990963988
C           -3.59771670001217       -1.42342279202180        1.32892445298363
C           -3.10510296137286       -0.12813145871490        1.23652059955971
C           -2.68597422021020        2.53246461625000       -1.26174124274112
C           -1.92173628019291        1.45188552909419       -2.02625936502055
C           -0.48703731122346        1.33999649164040       -1.63208297849280
N            0.21167353851300        0.33216375491025       -1.36810491501964
C            3.30502164203235       -0.56645043733734        0.44637831965844
C            3.44632677239708       -0.98729962166958       -0.98202820930487
C            4.68019358471593       -0.62770712896339       -0.16794443368882
C            5.38696265599613        0.60704540837124       -0.44037697764494
C            6.73008421733552        0.72539605409444       -0.23489477935280
C            7.50086282645136       -0.35366552656147        0.20592518630997
O            8.85226648390154       -0.35846877962628        0.37441558515272
C            9.57843215712174        0.81098361136852        0.10416181779122
C            6.85069822535542       -1.59222707298801        0.48735346417673
O            7.68099518310803       -2.58440069161074        0.90261661594181
C            7.15582097418913       -3.86377284881270        1.13617956486102
C            5.51661406116795       -1.72819010957821        0.29734917242895
C           -0.29419695757504       -1.00809388601967       -1.32815431471032
C           -4.21787036418615        3.11538615792852        0.69104942750949
C           -4.62116251135490        2.78431835192499        2.12723662234770
C           -3.88581765535660        4.60212319388187        0.58536346732581
H           -4.98539156479979        0.99239632804678       -1.31362526935703
H           -7.15885054156717        0.22510674063629       -1.78422798943060
H           -7.44487706281189       -1.25761036612007       -2.72899117117189
H           -5.96473644624516       -0.30814854172998       -3.00314896131119
H           -4.92836029785031       -3.67166962557263        2.46054901737906
H           -5.30510357229401       -4.93256895163986        1.26032993129315
H           -3.65854902050983       -4.26228312131628        1.35265316780350
H           -3.19718386756532       -2.07560147026815        2.08770917176786
H           -2.34855774209183        0.19217181087081        1.93455868501992
H           -3.60316425820532        2.73416998907374       -1.81982714016799
H           -2.08424036325635        3.44513756066193       -1.25292658905091
H           -2.40475198498953        0.48238105213494       -1.93594293251309
H           -1.90137825112744        1.73909194016371       -3.07980659833726
H           -1.00612736765889        1.64805216941502        0.62105099639143
H            0.07298163833098        2.26984890995924       -1.63253943975383
H            3.13284822537657       -1.29550699266427        1.22820960185627
H            2.91592865409033        0.42525862152596        0.62345569498311
H            3.14772433137057       -0.29186064160379       -1.75265140591373
H            3.29784311335533       -2.02164115971126       -1.22698987942067
H            4.80464419144515        1.43706873869953       -0.79551979921468
H            7.20763858371278        1.66712825171499       -0.45377369895908
H            9.24647155511389        1.64531173885821        0.73214421630341
H            9.50943459403369        1.09948302216538       -0.94957071746073
H           10.61515532243034        0.57316836150646        0.33849488289308
H            8.02304147924487       -4.49312934413037        1.34695891453613
H            6.50366518433754       -3.87370140315592        2.00942981929883
H            6.62767700587381       -4.25634305727136        0.26142051682319
H            5.00571819663093       -2.64971042011490        0.51821596425941
H           -0.13831672445680       -1.47925119487132       -2.30133596347176
H           -1.35754477052461       -1.06382634051321       -1.08334519553992
H            0.28543355444389       -1.54336798129636       -0.58392333449944
H           -5.08160096761364        2.91788656642172        0.04456450196193
H           -3.79246959755660        2.98480008783342        2.80013109382678
H           -4.91229919292496        1.74066377168375        2.22158816841790
H           -5.46582483196487        3.40128005588735        2.42713211672108
H           -2.99916973321405        4.82502645932535        1.16539628851920
H           -3.73219887509743        4.90756201387009       -0.44501677901202
H           -4.71161041179174        5.18639784962712        0.98267884726737
H           -0.72372386497092        3.18447186681488        2.33065142792635
