72
 energy: 33.069633137011 xtb: 6.6.1 (8d0f1dd)
N           -1.60919113490573        3.05948901845348        2.02552388817718
C           -1.73284666169087        2.27568880872336        1.05473609658856
C           -2.96467192950626        2.14165997447812        0.21614585107593
C           -3.49010823117223        0.71727582674970        0.29755225837735
C           -4.49092045207373        0.29070647313765       -0.57799544486447
C           -5.00991665888737       -0.98811155907265       -0.51153982147622
O           -5.98879504796983       -1.48265221019451       -1.32048593757694
C           -6.58516336953999       -0.62809402202271       -2.26188899990344
C           -4.52157756124790       -1.89109950872815        0.45890188480164
O           -5.09358410668845       -3.12732725239704        0.44990076860464
C           -4.71040963416243       -4.04882711511245        1.43811834933178
C           -3.53518456734199       -1.46377736648753        1.32649530026355
C           -3.02760620379639       -0.17333700699781        1.24631089934940
C           -2.50583152984874        2.44820535636653       -1.23359976085149
C           -1.66881091044516        1.35463527532517       -1.90052647202127
C           -0.22942644579218        1.22861303255691       -1.45296504414787
N            0.45950393164422        0.19715921085558       -1.19888848164778
C            2.90270408007980       -0.46755914930423        0.32827786764402
C            3.29245581031812       -0.84789509669676       -1.03258992336260
C            4.56941150136645       -0.57129083145767       -0.30380676754088
C            5.26602404159238        0.65260321057058       -0.57221456283138
C            6.60959218190108        0.77022511767961       -0.31875601574839
C            7.33082966901335       -0.30941289051812        0.16624907385152
O            8.66422727995491       -0.31059771700975        0.43877235550478
C            9.40364609736216        0.85026206370416        0.17628643026170
C            6.65604461957408       -1.53079744186051        0.42837491028343
O            7.44002684228918       -2.52698623679225        0.91293051782752
C            6.86357110095054       -3.78201578971907        1.14300374392592
C            5.32836180546741       -1.66098844080968        0.17876829222735
C           -0.18034555444556       -1.09777286383585       -1.12514790189680
C           -4.10230011133675        3.10186877143018        0.64714231417696
C           -4.58005515306697        2.77787905337700        2.06156431107348
C           -3.71566351587027        4.57645763982911        0.56524293351488
H           -4.87082510426738        0.97638660997932       -1.31752367680637
H           -7.05299809837125        0.24050143019657       -1.78455624355248
H           -7.35644724350670       -1.22391581165105       -2.74867814745818
H           -5.86477934530095       -0.28797703372685       -3.01409489950301
H           -4.92031932195308       -3.67283932116011        2.44550968598749
H           -5.31157863536678       -4.93794577720876        1.25561939298726
H           -3.64908576002388       -4.30594963157636        1.36153382694435
H           -3.15046486828198       -2.12299752672421        2.08532485782057
H           -2.27366693628187        0.13592819273275        1.95134725710739
H           -3.39812972737262        2.60360081843107       -1.84673077243875
H           -1.93235429340604        3.37746045261252       -1.23374520938908
H           -2.17999993943133        0.39706949471533       -1.83428311667822
H           -1.58260699627439        1.61475821601114       -2.95615622851922
H           -0.94260831234326        1.63421779438628        0.66928715633689
H            0.32528476029167        2.16678501242669       -1.43229815762887
H            2.70247395236697       -1.21646399399660        1.08629176838775
H            2.65161017419568        0.57069456282230        0.48993646197659
H            3.14876357115227       -0.20158042930486       -1.88826135420338
H            3.11467878554928       -1.87608127906804       -1.28095954506493
H            4.72580568961190        1.49236031958422       -0.97959098153024
H            7.11171236615296        1.70162397473345       -0.52918357399090
H            9.04554910522362        1.70579002724743        0.75576689179069
H            9.39702652821669        1.11047527711901       -0.88828228089713
H           10.42069247016151        0.61857795200306        0.48685725012867
H            7.68725967337125       -4.42125863655059        1.46183925763920
H            6.12630748552340       -3.74376013047646        1.94544475668802
H            6.41557272965190       -4.20050663187962        0.23579894477443
H            4.79246654939042       -2.57561522777628        0.34668095602058
H           -0.15932632157108       -1.52002861715054       -2.11631937556309
H           -1.21582297648031       -1.06101162413269       -0.77597854388542
H            0.31380676751609       -1.80369007772346       -0.48951549087113
H           -4.93554154928758        2.93063691975534       -0.04383414498664
H           -3.78163577663528        2.95970374374049        2.77534569153071
H           -4.89814894425264        1.74048250078526        2.13717679177116
H           -5.42144776676993        3.41641835128917        2.31962133340835
H           -2.86167891132259        4.77191746627500        1.20142486547606
H           -3.48855801620652        4.87700626944488       -0.45352595439415
H           -4.54446018381323        5.18671355853983        0.91373282755115
H           -0.69509888671462        3.05510762142588        2.47533892114313
