72
 energy: 38.127290385338 xtb: 6.6.1 (8d0f1dd)
N           -1.59815122370787        3.03529432977684        2.04359138950811
C           -1.71693263178295        2.26553681031257        1.06104420112447
C           -2.94744380195869        2.13556181179606        0.21860612716582
C           -3.47646228212244        0.71218162294545        0.30042090923738
C           -4.47663642445043        0.28747501971518       -0.57677288122798
C           -4.99772740016787       -0.99069279735591       -0.51192290109771
O           -5.97584530974057       -1.48351182914477       -1.32307920289056
C           -6.57066788124419       -0.62709510201674       -2.26372603945278
C           -4.51211000884725       -1.89488889861767        0.45866996738268
O           -5.08558543753156       -3.13064533983031        0.44766564914194
C           -4.70604266539825       -4.05296828535733        1.43643426406722
C           -3.52644240107407       -1.46949506634638        1.32815729442048
C           -3.01663034400694       -0.17975274915579        1.24951014864886
C           -2.48070826367242        2.43841694158071       -1.22938937263211
C           -1.63487461968023        1.34242913094282       -1.88390952767372
C           -0.20174857999969        1.21278500312345       -1.41324199942873
N            0.48311731859562        0.17567954860271       -1.16202020335033
C            2.71015609440605       -0.45321547181099        0.28995710002833
C            3.27267240731527       -0.81467628746768       -1.01689394641226
C            4.61576719559840       -0.57498650895383       -0.40840856482959
C            5.25850523644471        0.65116810334166       -0.61723069812704
C            6.60112676015467        0.77832048702626       -0.33438584505399
C            7.30764781383423       -0.30148808514868        0.16085342403360
O            8.63713614762714       -0.30273226338103        0.44893213715639
C            9.37990693600963        0.85736794724381        0.18805250071687
C            6.63590827155405       -1.51804432326012        0.42262359587286
O            7.40590165227665       -2.51551972175363        0.92125148834408
C            6.82168060828457       -3.76965076157913        1.14452804729422
C            5.30526941135448       -1.64492133849442        0.14314141432963
C           -0.16855517308829       -1.11593963827515       -1.09199714530148
C           -4.08455755807223        3.10016278805743        0.64174164299596
C           -4.57488305540500        2.77858488495740        2.05237270739479
C           -3.69233105345268        4.57335911228655        0.56302741125417
H           -4.85468476169978        0.97394983730835       -1.31661980098524
H           -7.03729309191981        0.24160253557232       -1.78545431636311
H           -7.34244987961639       -1.22125048723747       -2.75172993011919
H           -5.84951528495269       -0.28699991682333       -3.01517967578399
H           -4.91638007433353       -3.67647539417904        2.44351628954424
H           -5.30901217401346       -4.94080157741304        1.25311102548960
H           -3.64517624892974       -4.31297438952692        1.36138871449638
H           -3.14345952893156       -2.13014326394055        2.08669395280878
H           -2.26272814924918        0.12747416957168        1.95556137864511
H           -3.36913070996910        2.59042145720219       -1.84823294118572
H           -1.90960778465389        3.36891131244463       -1.22888543674587
H           -2.15132371891694        0.38717094021359       -1.82298031205171
H           -1.53466854396420        1.59846759659018       -2.93993955382397
H           -0.92116436854439        1.63535995520488        0.66318238944158
H            0.35559771497624        2.15016554464934       -1.39731899198339
H            2.63531719019297       -1.19731072433086        1.06655366146233
H            2.61062218876633        0.59721945752745        0.48085995747546
H            3.11880287651536       -0.18311799989743       -1.89329506220067
H            3.09042432410777       -1.84407780455720       -1.28906699267171
H            4.71816206672082        1.49172356128995       -1.02586181478303
H            7.10039804882934        1.70978438802756       -0.54382157703205
H            9.01637678859189        1.71459548291566        0.76115563331254
H            9.38193198922298        1.11268012473135       -0.87741220686326
H           10.39365908618822        0.62550836559768        0.50841353591112
H            7.63765060711243       -4.41077665095163        1.47778542956516
H            6.07184628880317       -3.72713922649199        1.93505801556283
H            6.38583583757066       -4.18905512110198        0.23162050821688
H            4.76489466923586       -2.55800477916920        0.31369296499309
H           -0.16813545141891       -1.52843569029504       -2.08750130070433
H           -1.19747866428473       -1.07456709325734       -0.72435778165287
H            0.33298374034383       -1.83408637275326       -0.47268140032430
H           -4.91391678962071        2.93362421900671       -0.05521254119974
H           -3.78082376725367        2.95685350133066        2.77173516903222
H           -4.89785296314377        1.74253619553171        2.12547954691523
H           -5.41554576591783        3.42070899594439        2.30393131421780
H           -2.84323273248285        4.76623505916487        1.20660810847049
H           -3.45541895810912        4.87297636955463       -0.45378510647962
H           -4.52179926315129        5.18677599142833        0.90438232415227
H           -0.68362282427903        3.03224767680285        2.49199551148149
