72
 energy: 22.573017911692 xtb: 6.6.1 (8d0f1dd)
N           -1.63434227948759        3.15656843247198        1.91789171205066
C           -1.78857326838577        2.31115762363678        1.00652181406679
C           -3.04590439202420        2.17126454670455        0.20479446124335
C           -3.55702523938874        0.74301183443115        0.28717393683935
C           -4.56297001369545        0.30721347498205       -0.57774887227941
C           -5.07169142037354       -0.97533032031193       -0.50260879505278
O           -6.05459078777138       -1.48026350925217       -1.30090020321955
C           -6.65762957740968       -0.63934615579977       -2.25023612269577
C           -4.56905842675479       -1.87085955710449        0.46733237686639
O           -5.13263066349104       -3.11103635065120        0.46805037529564
C           -4.72494601011715       -4.02941252541377        1.44853226301574
C           -3.57983904457716       -1.43356079353708        1.32677046235737
C           -3.08279456917177       -0.14002955766927        1.23704296170663
C           -2.63603301778921        2.50824294101001       -1.25213227098922
C           -1.84891557682630        1.42467222518705       -1.98595252021983
C           -0.40830790202165        1.30042659855168       -1.59697403601095
N            0.29936472991941        0.29562806691344       -1.34019087715201
C            3.21281872610285       -0.53800736461612        0.44201134895173
C            3.42520485410307       -0.95197936625008       -0.96139972541782
C            4.64880578446968       -0.61093301667763       -0.16317289830755
C            5.36340583878154        0.61629707125546       -0.42634405351512
C            6.70766605649005        0.73405850812497       -0.22656137502620
C            7.46060236023079       -0.34904226304987        0.20098107401097
O            8.80616003561951       -0.34804557201270        0.39188004391417
C            9.53103191103522        0.82055157807932        0.11884231434429
C            6.79953330335704       -1.57986114926541        0.47321242006209
O            7.61666044880532       -2.57325739845191        0.90386582187381
C            7.07301739662605       -3.84279905785258        1.13762437231151
C            5.46621142930333       -1.71237539909149        0.28365292790496
C           -0.25137199223832       -1.02954310375040       -1.28631555394769
C           -4.18751186222371        3.11085521675344        0.67744006303211
C           -4.61157214672534        2.78121039380544        2.10805186881911
C           -3.84044641317685        4.59419323863017        0.57598564549841
H           -4.95272719335296        0.98825925937273       -1.31621902757123
H           -7.13195043690890        0.23024701061437       -1.78181828981075
H           -7.42473001675447       -1.24593206619240       -2.73154524945513
H           -5.93986850558082       -0.30036785029062       -3.00555770872254
H           -4.93208913503449       -3.66299162663705        2.46068947293681
H           -5.31113516815865       -4.92843763679503        1.26644982398988
H           -3.65990734857028       -4.26868015981519        1.35845024681026
H           -3.18594091840022       -2.08673820407378        2.08691947100410
H           -2.32866197848809        0.17854683438353        1.93771531404312
H           -3.54784176680355        2.69099999565877       -1.82876764080797
H           -2.04230546384182        3.42650657872916       -1.24718337106423
H           -2.34185821966174        0.46000795184997       -1.91103705889185
H           -1.81287343237876        1.71279012874826       -3.03624642451251
H           -1.01222473928599        1.62117095170756        0.65835240985222
H            0.15073728396413        2.23223635298239       -1.58973958246726
H            3.04177972271189       -1.28156151045363        1.21271814691353
H            2.83989898314183        0.46800949945906        0.60757816993036
H            3.21524635293317       -0.28102675039422       -1.77424810794823
H            3.27539050282161       -1.98482033946259       -1.18925702585500
H            4.78830064412206        1.45459649021039       -0.77083988982011
H            7.19463429697959        1.67155630282740       -0.43737076945398
H            9.20130989971715        1.66355908023666        0.73221810187354
H            9.47468413600685        1.10126080200328       -0.93847777103783
H           10.56249269145805        0.58480752238180        0.37445232297223
H            7.92570237593897       -4.48036286814598        1.37569747434145
H            6.39610550127655       -3.83930057706320        1.99192066834340
H            6.56610983666568       -4.23909294048118        0.25338221389312
H            4.94587956255473       -2.63181234538491        0.47694642239290
H           -0.13625834574682       -1.48051000424570       -2.26537915142175
H           -1.30504979337190       -1.02820194837596       -1.01564104330113
H            0.28919304022382       -1.62538162644663       -0.57280683150765
H           -5.04182429990583        2.91767220300761        0.01820084394005
H           -3.79537608441804        2.98177409463212        2.79563661019575
H           -4.90646527921042        1.73811836088663        2.19797618701455
H           -5.45739893926601        3.40141243022793        2.39493784750501
H           -2.96509196349541        4.81083754205821        1.17463882084362
H           -3.66396214560796        4.89791186193437       -0.45154275442553
H           -4.66827025749985        5.18509207376585        0.95817559277330
H           -0.71852164351941        3.15674658772528        2.36392775837791
