72
 energy: -4.761130091322 xtb: 6.6.1 (8d0f1dd)
N           -1.51276766475860        2.81825594297190        2.21287627306846
C           -1.57942836206752        2.16781673910545        1.13927327202067
C           -2.77833101196623        2.07241914577444        0.24163486797118
C           -3.34197067301848        0.65963122371982        0.32280709637181
C           -4.33192522515211        0.25324843459447       -0.57484969585896
C           -4.87341394549413       -1.01691094053946       -0.52679317457942
O           -5.84456452988956       -1.48962610785418       -1.35828764541749
C           -6.42460125199718       -0.61357236197548       -2.29036252565781
C           -4.41690765024779       -1.93425832759283        0.44589423148357
O           -5.00709798377351       -3.16255468528664        0.41603421100182
C           -4.66954861266489       -4.09246283820334        1.41246175743408
C           -3.43959297308707       -1.53063818695992        1.33513546748246
C           -2.90873082414729       -0.24695387792112        1.27306859709776
C           -2.23717641912026        2.31972890984924       -1.19201238753837
C           -1.30304133653423        1.20322336762092       -1.70216057598849
C           -0.00415583954144        1.14523028346276       -0.95774127989087
N            0.66079156553764       -0.03792424730945       -0.64547519028063
C            2.02732375901917       -0.10655590310447       -0.13772811208358
C            2.98836751683728       -0.58676669523483       -1.23810665670661
C            4.40448405319956       -0.45937687918198       -0.77057374170958
C            5.10656369903919        0.71361352161520       -0.97445084260938
C            6.42400891804132        0.83020971457560       -0.56024293918357
C            7.04939721965928       -0.22536650089694        0.07544358984352
O            8.33609803638784       -0.22617917503708        0.51937439936397
C            9.12176114520668        0.91674052441130        0.29984239947655
C            6.33136471893448       -1.41999123951136        0.30504214211307
O            7.02820022795027       -2.40519677168329        0.93303548034616
C            6.40042463637059       -3.64084632414886        1.15206955137059
C            5.02032329875950       -1.51888263272708       -0.11349450461337
C           -0.06531107719273       -1.27823044684451       -0.69770192855759
C           -3.90517285370868        3.08173511070264        0.59168222601372
C           -4.50872536003468        2.77685306435959        1.96123045131248
C           -3.44306548959314        4.53683630122804        0.55203396672587
H           -4.69064183885980        0.94912999426897       -1.31592329513652
H           -6.88027180789553        0.25475084596136       -1.80219990451970
H           -7.20134836485948       -1.19249947674768       -2.78827715531486
H           -5.69763380946328       -0.27274042505940       -3.03559626076775
H           -4.88701441670968       -3.70910040254304        2.41536048091687
H           -5.29261760106475       -4.96421819914951        1.21892076065474
H           -3.61472969254825       -4.38357230584593        1.35550723463309
H           -3.08217910222671       -2.20398562894871        2.09767519143999
H           -2.16389590320993        0.04062027479925        1.99867564625290
H           -3.07979139132762        2.41344972137887       -1.88008608405441
H           -1.69561638983818        3.26665982395420       -1.20665219752470
H           -1.85042598097021        0.26175882895814       -1.65650687178673
H           -1.08689268112140        1.40997732708367       -2.75862995749512
H           -0.72214267097396        1.64810636918499        0.64907189708431
H            0.61942392357963        2.02039668333255       -1.01898603813415
H            2.14595698939998       -0.77327597996180        0.73381771936625
H            2.34471190679799        0.90356389766516        0.16062685327877
H            2.82849795331639        0.02407317039535       -2.12702682986078
H            2.74971689608565       -1.62190586175564       -1.48233224784115
H            4.63714652503427        1.54725464939116       -1.47438487447541
H            6.95519563829854        1.74855361994133       -0.75110721190008
H            8.71250485935036        1.79557715797913        0.80853523706354
H            9.23235808042906        1.13574917238438       -0.76772664445603
H           10.09714608757730        0.68130390481344        0.72215311842456
H            7.15340272196568       -4.26702754336244        1.62806694451069
H            5.54120206199551       -3.54488889274569        1.82229260749718
H            6.08219881759775       -4.10855003667748        0.21400995536383
H            4.46070772900152       -2.42672006168154        0.04870842556849
H           -0.21896096237014       -1.60847817348386       -1.72827445169170
H           -1.04418287778648       -1.21047246254633       -0.21034885089908
H            0.51750444754318       -2.03187884839185       -0.18412416500601
H           -4.68983667057084        2.95667122691408       -0.16380367007273
H           -3.75906398053348        2.91231289073564        2.73486620634288
H           -4.87906535997806        1.75528433153905        2.00331044330710
H           -5.33785114679450        3.45350947297825        2.15494482819563
H           -2.64003550293707        4.69662522995574        1.26360131947019
H           -3.10773874502484        4.82621622800734       -0.44018251823371
H           -4.27209251702541        5.18585962534485        0.82455835245892
H           -0.61314430867992        2.81295759121861        2.68877677412294
