72
 energy: 1.424756352342 xtb: 6.6.1 (8d0f1dd)
N           -1.53070824651379        2.86466199268203        2.18344931431648
C           -1.60705086500521        2.18638211701957        1.12704119177791
C           -2.81092764815142        2.08514720959017        0.23873948674621
C           -3.36880430025882        0.67070403322766        0.32057219780115
C           -4.36059849528070        0.26069700036445       -0.57340842053266
C           -4.89798781770031       -1.01126779918033       -0.52307927367257
O           -5.87010744531148       -1.48903446916462       -1.35158175421552
C           -6.45329839257495       -0.61814388461662       -2.28649879499076
C           -4.43566405918340       -1.92600566394969        0.44899036503200
O           -5.02282686952657       -3.15634323762154        0.42214156416756
C           -4.67624901540840       -4.08396246663126        1.41723079449468
C           -3.45698208067824       -1.51843773689762        1.33513333485031
C           -2.93051500263166       -0.23341844593459        1.27061298634062
C           -2.27949498833693        2.33968361389686       -1.19732649939949
C           -1.35002948046655        1.22611080303007       -1.73517332997850
C           -0.01572979638874        1.15843187296865       -1.03022508604877
N            0.68688057334175       -0.02425973005401       -0.72312791997287
C            2.06825239147531       -0.16723906466877       -0.10531087166721
C            3.04097219243130       -0.62927159209095       -1.19166758102512
C            4.44879512916063       -0.48277942850400       -0.70001861764068
C            5.13737890785130        0.69733184818315       -0.90608960154191
C            6.46168187547815        0.81816401135463       -0.51794365524146
C            7.10201228113892       -0.24180820407140        0.09242578412137
O            8.39689103812312       -0.24174767668417        0.50827660894884
C            9.17414657745025        0.90542661595711        0.28012858683789
C            6.39292458639095       -1.43969482937553        0.32838481871118
O            7.10382262936028       -2.42761919454813        0.93212139759215
C            6.48467346857379       -3.66719958067645        1.15116030675349
C            5.07537985670819       -1.54324458820543       -0.06386282319659
C           -0.07487124678087       -1.25159904209764       -0.77306291786161
C           -3.94096647676163        3.08625596812993        0.60115480855673
C           -4.52285947290420        2.77804570398928        1.97922273876305
C           -3.49324335276077        4.54525820958881        0.55551746971959
H           -4.72298522735284        0.95466507198017       -1.31461020695615
H           -6.91200559641875        0.25059623591245       -1.80174329999406
H           -7.22845744448831       -1.20094689106094       -2.78282863092999
H           -5.72726149962670       -0.27747340506363       -3.03260685157842
H           -4.89251546641256       -3.70205550833709        2.42117019688158
H           -5.29460710559745       -4.95961876010294        1.22649262732814
H           -3.61964902237655       -4.36799235253525        1.35599507774666
H           -3.09470628444799       -2.18966175672190        2.09675956170758
H           -2.18380662050885        0.05827175891828        1.99223059076199
H           -3.13334547505111        2.44358576776476       -1.87203693014258
H           -1.73795151945070        3.28653208019404       -1.20962959058493
H           -1.90255625830973        0.28787732453483       -1.68904752654952
H           -1.17044327112636        1.44426192009361       -2.79694830110703
H           -0.76218343009491        1.64176086305531        0.65398283700652
H            0.58606504612609        2.04838624746699       -1.09747688763207
H            2.16261092885122       -0.88077732580436        0.74692910976877
H            2.39023053082694        0.83360232911981        0.22052747224592
H            2.89432503789850       -0.02156549325692       -2.08565301534788
H            2.81786509084026       -1.66572467568098       -1.44319593199012
H            4.65418996490335        1.53304925817598       -1.38837369758844
H            6.98669192750500        1.73884871789396       -0.71330124232186
H            8.77271176004418        1.77975200261829        0.80150310264605
H            9.26325148767779        1.13207679536603       -0.78781191776351
H           10.15797829140431        0.67155698553166        0.68303536647099
H            7.25110390651533       -4.29635919575343        1.60132526978960
H            5.64569783536319       -3.58143971300653        1.84596417710037
H            6.14316027989187       -4.12507791560584        0.21636410202008
H            4.52101144008536       -2.45331026380096        0.09992211529135
H           -0.20981175066793       -1.59109960743716       -1.80114599817121
H           -1.06803551549033       -1.17819689530307       -0.31210813706051
H            0.47487440623024       -2.01412979561286       -0.24508378442605
H           -4.73471717292587        2.95453651941196       -0.14363407532829
H           -3.76350724002730        2.92170765178651        2.74225813319657
H           -4.88438201744235        1.75352858983356        2.02743282624962
H           -5.35427349326942        3.44872444597045        2.18397394847770
H           -2.68140734875153        4.70955676733736        1.25478149308114
H           -3.17703622164074        4.83745924076386       -0.44182254977759
H           -4.32250501720234        5.18765914959022        0.84229557887028
H           -0.62691447850362        2.85690173207315        2.65073334598971
