72
 energy: 15.459854273187 xtb: 6.6.1 (8d0f1dd)
N           -1.54888804957405        2.90823958004945        2.15153343718586
C           -1.63497951448274        2.20434974686102        1.11276214489258
C           -2.84476303739164        2.09738536059865        0.23521510080103
C           -3.39670005459267        0.68119397050621        0.31716207239745
C           -4.39039197775421        0.26754454852175       -0.57299575652712
C           -4.92360926886942       -1.00612105874542       -0.51971235394379
O           -5.89710820514796       -1.48818794850217       -1.34460213863142
C           -6.48309523839847       -0.62148910830240       -2.28162849064209
C           -4.45541900112828       -1.91828839848146        0.45180008752491
O           -5.03918738127740       -3.15050544863118        0.42820070313117
C           -4.68354242737825       -4.07637601426925        1.42154991164815
C           -3.47536818594729       -1.50653754369362        1.33454270172607
C           -2.95334781025091       -0.22015084797657        1.26704859360835
C           -2.32448949244277        2.36069595136579       -1.20288269676632
C           -1.40453565148650        1.24976498386787       -1.76619480407322
C           -0.03718471915282        1.17051203665833       -1.10531199513075
N            0.69840954974715       -0.00668384099825       -0.81167007368131
C            2.13414517287828       -0.22204911932865       -0.05861015994345
C            3.09527774037577       -0.67184110838918       -1.14591938609244
C            4.49400684893888       -0.50548153157128       -0.62821708836257
C            5.16740789586790        0.68334311284486       -0.83393142933832
C            6.49827809875113        0.80804278725043       -0.47145124132143
C            7.15400184412679       -0.25706900880544        0.11073911612460
O            8.45744786427835       -0.25767846816822        0.49522653136575
C            9.22689468343905        0.89293739341447        0.25845610035893
C            6.45395277126335       -1.45825703935133        0.35389902402915
O            7.17920111455853       -2.44901662724581        0.93194368737517
C            6.57050664323938       -3.69362417831454        1.15038101970114
C            5.13056283856805       -1.56625926116866       -0.01140029595174
C           -0.08755651004306       -1.22417839374247       -0.84533388320285
C           -3.97689349313588        3.09033212624471        0.61159522477453
C           -4.53670782392680        2.77914992787727        1.99822384487598
C           -3.54287221514968        4.55301806725594        0.55832483430697
H           -4.75667772382507        0.95967498002638       -1.31404213466833
H           -6.94419017798615        0.24751556290929       -1.79937053835511
H           -7.25716228461953       -1.20748066733560       -2.77621415434310
H           -5.75804215050648       -0.28103023553122       -3.02877111959976
H           -4.89821607792811       -3.69614313602132        2.42658985544838
H           -5.29744780657355       -4.95561193280821        1.23318810243536
H           -3.62542463281206       -4.35354447377232        1.35606226872483
H           -3.10818973488631       -2.17535542572718        2.09540379986814
H           -2.20492465221231        0.07575616010148        1.98477139539776
H           -3.18763853327685        2.47538729856933       -1.86569837634081
H           -1.77874924488363        3.30521443413091       -1.21276581176402
H           -1.95743317551383        0.31224369798050       -1.72104837553972
H           -1.25546826180909        1.48077416642126       -2.83025344091770
H           -0.80117843895747        1.64222530009836        0.65197915090327
H            0.54599840526140        2.07301847732957       -1.17736521654137
H            2.21892211706350       -0.95956732790702        0.78638524398575
H            2.44281450710573        0.77562538409579        0.27455589630204
H            2.96048520407160       -0.06756766056289       -2.04583658268208
H            2.88764923174502       -1.70980538781849       -1.40580579059270
H            4.67007067112611        1.52199314387345       -1.29698542167572
H            7.01730800835075        1.73054608230783       -0.67295227712461
H            8.83350409192304        1.76257322209875        0.79263744284727
H            9.29464504721036        1.12672117381696       -0.80951747207326
H           10.21875122020032        0.66025562498258        0.64184761180637
H            7.35111418680280       -4.32524529570648        1.57264809309240
H            5.75304733068157       -3.61973863551970        1.87006687566063
H            6.20609297686991       -4.14219991461080        0.21965930188715
H            4.58037638940580       -2.47729121487779        0.15714010828719
H           -0.20136132054225       -1.56971457204173       -1.87122293500586
H           -1.09331344254596       -1.14639538106774       -0.40814990906978
H            0.43412373910207       -1.99203606054324       -0.30513390929216
H           -4.78011205215976        2.95127201265543       -0.12161032476576
H           -3.76794892617153        2.93029360523999        2.75066721514409
H           -4.88963995058169        1.75190586895929        2.05269651084157
H           -5.37017117400982        3.44364992214533        2.21488613144350
H           -2.72164573891074        4.72332424759428        1.24415807165517
H           -3.24644399774359        4.84733367947193       -0.44430313373643
H           -4.37214034805157        5.18877192501154        0.85904643794767
H           -0.64159765891017        2.90129533844704        2.61189374520235
