72
 energy: 21.761042033369 xtb: 6.6.1 (8d0f1dd)
N           -1.63884937357152        3.17475650016017        1.89777297357196
C           -1.79812835246255        2.31749985987892        0.99761712162153
C           -3.06098589211955        2.17644342760957        0.20217250717483
C           -3.57046877275781        0.74774590996908        0.28639441056047
C           -4.57731289929485        0.31016267884442       -0.57697855759736
C           -5.08411237737281       -0.97314617667091       -0.50050532360519
O           -6.06753894338580       -1.48061762449804       -1.29713226592188
C           -6.67086621889150       -0.64460621921592       -2.25072019481428
C           -4.57867508391870       -1.86737852316823        0.46955739538768
O           -5.14021513258320       -3.10841599172398        0.47137448490738
C           -4.72676474520492       -4.02791231817060        1.44872162734965
C           -3.58939674101159       -1.42806648026810        1.32805031856231
C           -3.09433551137956       -0.13373986087485        1.23693026498793
C           -2.66142947155381        2.51996258566136       -1.25729454250203
C           -1.88530540769977        1.43811569652324       -2.00633611070363
C           -0.44818373609569        1.32004810413596       -1.61439450837536
N            0.25626670670276        0.31582310707630       -1.35124276590216
C            3.26920698978979       -0.55176201743138        0.45117938768796
C            3.44129652044062       -0.96946651137492       -0.96599672815412
C            4.66404429508653       -0.61456655082596       -0.15241346880455
C            5.38481490046900        0.61119243922762       -0.41378977904402
C            6.72768581784901        0.73050043287746       -0.21448806961114
C            7.48487830711855       -0.35505343293063        0.20660729059507
O            8.83277012321129       -0.35564998620884        0.38337886358080
C            9.55772873687268        0.81373370581755        0.11157866282325
C            6.82540353581916       -1.58779813904795        0.48160985681431
O            7.64907875698931       -2.58071929285463        0.90306051332069
C            7.11485155985732       -3.85478591887969        1.13690999461977
C            5.49098318444229       -1.71996473804325        0.29654598750968
C           -0.27047839623529       -1.01792236123295       -1.30564027864200
C           -4.20348773925520        3.11331164052573        0.68349170362555
C           -4.61735728956288        2.78232942432843        2.11681298103526
C           -3.86398942649825        4.59873323211897        0.58056261985649
H           -4.96917020327018        0.99047859394103       -1.31516056015710
H           -7.14678827010912        0.22613696461457       -1.78648650579172
H           -7.43592181031334       -1.25484995971581       -2.73114357465546
H           -5.95286337693561       -0.30690457763640       -3.00621858331093
H           -4.93187557180188       -3.66593404296394        2.46170727555049
H           -5.30820297693791       -4.92981755897068        1.26389105977785
H           -3.66114762772405       -4.26240477005055        1.35786527843016
H           -3.19345054329417       -2.08007009969709        2.08809452382179
H           -2.34087160093238        0.18642123795779        1.93782664150826
H           -3.57615170012016        2.71315138074195       -1.82404589464079
H           -2.06383001509618        3.43604967098673       -1.25033577444136
H           -2.37391124872258        0.47232438058556       -1.92188018081293
H           -1.85810191270079        1.72608863653718       -3.05768101400725
H           -1.01165632737107        1.63754877422746        0.64290280058676
H            0.11261731801206        2.24876542612097       -1.61468669269033
H            3.11967819548773       -1.29045810010478        1.23014234743359
H            2.87677262127964        0.44457095199270        0.61868436937860
H            3.18253846197579       -0.28805040884331       -1.76032492629154
H            3.30091784311934       -2.00466907728123       -1.19821666619345
H            4.80274724186484        1.44843561799067       -0.74620251255738
H            7.20848092431724        1.67115154281981       -0.42610698477018
H            9.23214220758523        1.65377632241218        0.73124486478746
H            9.49249537267454        1.09914651315243       -0.94417028477704
H           10.59212644272092        0.57713866659122        0.35855161319647
H            7.97490196735455       -4.48830988076798        1.36297387788461
H            6.44886388512287       -3.86195812499416        1.99985536073245
H            6.59789572459191       -4.24837707279381        0.25696260505096
H            4.97485192145437       -2.64111226397253        0.50073883668293
H           -0.12853084520014       -1.46675752409553       -2.28611091876472
H           -1.33051555590228       -1.04678796044721       -1.05319948730264
H            0.29409498818921       -1.58512622126677       -0.57877544005723
H           -5.06217895255194        2.91697912668870        0.03072823491922
H           -3.79468475666605        2.98451646992646        2.79571609936245
H           -4.90907511600396        1.73856425605913        2.20963607657410
H           -5.46291744415116        3.40050021626303        2.41046877892667
H           -2.98564773191318        4.82006441766287        1.17346799491783
H           -3.69705275122505        4.90560219185072       -0.44759744720026
H           -4.69179064000619        5.18537597186103        0.96907953774729
H           -0.72213817419619        3.17787985213494        2.34271325445723
