72
 energy: 37.595311329912 xtb: 6.6.1 (8d0f1dd)
N           -1.58213973116312        2.99101161051979        2.08066852874910
C           -1.68893433809917        2.24771321519016        1.07662223513903
C           -2.91386163847142        2.12318000964170        0.22396183773192
C           -3.45016094571904        0.70182423608403        0.30731432076028
C           -4.44799547841475        0.28091785700108       -0.57472575881966
C           -4.97306350325797       -0.99589430107443       -0.51430680737049
O           -5.94902640859630       -1.48531915141014       -1.33037226219157
C           -6.54115210395528       -0.62598175367780       -2.27033888064082
C           -4.49319518126002       -1.90293078351065        0.45683949237689
O           -5.06982503286446       -3.13702002227489        0.44107707287451
C           -4.69833674630365       -4.06091281636129        1.43147006665283
C           -3.50979141060497       -1.48180580770529        1.33133039956413
C           -2.99592992431563       -0.19302022566037        1.25694591470407
C           -2.43237783113430        2.41477603102664       -1.22172303145204
C           -1.56909327147620        1.31545769356431       -1.84899604732787
C           -0.15119841472302        1.18695977859993       -1.33446613187648
N            0.52104287655515        0.13817788493827       -1.07825919566345
C            2.56261703566501       -0.39625273917337        0.21054990182564
C            3.21615005092748       -0.76905080251411       -1.05279729849212
C            4.58424901829636       -0.55389630946460       -0.49067799599239
C            5.23035988401979        0.66086104597717       -0.69194801965135
C            6.56920024831836        0.78811971321419       -0.38032936065130
C            7.25799111595175       -0.28727693557656        0.14473076272666
O            8.58003879851430       -0.28767892514826        0.46770439663738
C            9.33061338315023        0.86968662909883        0.21384148660980
C            6.57725958601435       -1.49793876175692        0.40083433187403
O            7.33194153683641       -2.49429484252526        0.92714381500660
C            6.73774859340230       -3.74466790785477        1.14703072032839
C            5.24886666315469       -1.61886612860446        0.09013561388806
C           -0.14896022144806       -1.14662184748643       -1.01535422480193
C           -4.04881883702998        3.09775812418862        0.63172568387500
C           -4.56271812458183        2.77965259061356        2.03435616666037
C           -3.64253593337302        4.56749318817197        0.56207426630838
H           -4.82200352880874        0.96931155308545       -1.31509558346413
H           -7.00603497796324        0.24292190183128       -1.79104441879158
H           -7.31354265679353       -1.21762759396322       -2.76055419226458
H           -5.81860271449376       -0.28588564395436       -3.02027115532561
H           -4.91027770415837       -3.68301452163779        2.43774477953325
H           -5.30510139693601       -4.94581294760911        1.24647219040875
H           -3.63834260901634       -4.32649143238632        1.35942298385355
H           -3.13140678929812       -2.14537506395718        2.08991687423474
H           -2.24345526368450        0.11009430954326        1.96655637274325
H           -3.31279991642259        2.55435822625593       -1.85371263665542
H           -1.86762706100124        3.34862461217910       -1.22423125082508
H           -2.09123558140159        0.36287068838150       -1.79204832643398
H           -1.44226011669774        1.55935648140695       -2.90615071119831
H           -0.88077470972018        1.63914325078723        0.66224069994946
H            0.41498811286346        2.12004622596905       -1.32508145262350
H            2.51552817089484       -1.13216172040216        0.99944426821719
H            2.55318209110564        0.65589171566617        0.42086685244808
H            3.05900267452084       -0.14432966499743       -1.93612849090282
H            3.02364041359787       -1.79990026505928       -1.32495299970427
H            4.70267863338159        1.50072795356205       -1.11773900150168
H            7.07472619036255        1.71676197647548       -0.58706297788421
H            8.95612246380354        1.73128420193904        0.77337220417909
H            9.35410667750575        1.11798056702373       -0.85303692153030
H           10.33792764183221        0.63883301587917        0.55543878754579
H            7.54155397012882       -4.38381190041785        1.51193927378356
H            5.96384248107501       -3.69161962896959        1.91378623999774
H            6.32588079577949       -4.17202033106469        0.22599598895945
H            4.70415793356900       -2.53099097084895        0.25953814296264
H           -0.18162922899990       -1.54398007886162       -2.01795804013974
H           -1.16870371709681       -1.09993237520098       -0.62107727978584
H            0.36612752220353       -1.88033598080956       -0.42076810141671
H           -4.86958855911280        2.94137138312618       -0.07776313738875
H           -3.77672267468939        2.94845328024671        2.76455655648792
H           -4.89662053610210        1.74674049492658        2.10124550571712
H           -5.40060982808996        3.43001345347522        2.27421206520544
H           -2.80303116028604        4.75237930098144        1.22049586439366
H           -3.38573810865841        4.86625212717633       -0.45016521796247
H           -4.47204651603619        5.18823858674156        0.89036414158721
H           -0.66960535306777        2.98881463560462        2.53217038902189
