72
 energy: -2.472448675921 xtb: 6.6.1 (8d0f1dd)
N           -1.52245198982713        2.84106978283756        2.19936179457389
C           -1.59324828064403        2.17697557140073        1.13391153178746
C           -2.79420457095621        2.07875227418312        0.24027335206953
C           -3.35506224675212        0.66518184608442        0.32180003159503
C           -4.34601957988907        0.25704038179642       -0.57397403358276
C           -4.88551857145008       -1.01401919991694       -0.52488668429489
O           -5.85706441917344       -1.48933517233843       -1.35499886623968
C           -6.43864511571044       -0.61591192746375       -2.28858167943923
C           -4.42613730101349       -1.93009340576871        0.44746821385122
O           -5.01481628735972       -3.15943844933246        0.41897207448235
C           -4.67271557206174       -4.08818989849082        1.41471489776826
C           -3.44820275153449       -1.52451623692319        1.33527915928089
C           -2.91943965385170       -0.24018863612622        1.27201001251001
C           -2.25841105601798        2.32974010287119       -1.19488623155494
C           -1.32689610379940        1.21458415627266       -1.71936893275427
C           -0.01027016577649        1.15214250402689       -0.99445559678194
N            0.67307643984965       -0.03092792647714       -0.68557949093784
C            2.04476132289959       -0.13833443527211       -0.12319078019527
C            3.01438775668712       -0.60892172516462       -1.21510276051982
C            4.42640136604753       -0.47122976963530       -0.73518969950507
C            5.12184557755742        0.70530671782494       -0.94040401624878
C            6.44282663877353        0.82415218615166       -0.53933055998516
C            7.07571650716030       -0.23354061296425        0.08390454184083
O            8.36657770971759       -0.23401999631059        0.51376995644200
C            9.14811847482233        0.91099866367028        0.29001667220503
C            6.36204295116214       -1.42964940126089        0.31698165396201
O            7.06595797783172       -2.41633117753774        0.93270806875329
C            6.44251017813690       -3.65402941975654        1.15126308909760
C            5.04767389706186       -1.53088467330912       -0.08822520665548
C           -0.07030843831027       -1.26502941708583       -0.73532685401156
C           -3.92271987713454        3.08398630754713        0.59633688929459
C           -4.51576449297104        2.77756796009460        1.97007022474928
C           -3.46787539163740        4.54106641704859        0.55377902653139
H           -4.70664226365625        0.95200737120277       -1.31506369049574
H           -6.89597436550552        0.25261745229229       -1.80224129140381
H           -7.21446351662263       -1.19685454956880       -2.78585392229743
H           -5.71204412669716       -0.27510202308385       -3.03411319894368
H           -4.88964329341002       -3.70558077509991        2.41815037736578
H           -5.29329062682248       -4.96200552052152        1.22259406175255
H           -3.61693639260592       -4.37561513181502        1.35560638700773
H           -3.08852615529584       -2.19681103114984        2.09742720606453
H           -2.17384564070481        0.04951354260288        1.99575516730802
H           -3.10671498833464        2.42913100262734       -1.87617403817218
H           -1.71640977735223        3.27632369291901       -1.20845270668428
H           -1.87696571828924        0.27474537036745       -1.67324243705860
H           -1.12933236578262        1.42673364839120       -2.77875653584472
H           -0.74132018638506        1.64574769978906        0.65232866367435
H            0.60267700441386        2.03453214185480       -1.05838597575932
H            2.14299260965066       -0.83127745412826        0.73637705347957
H            2.36819192300861        0.86669179111804        0.19151417215416
H            2.86077683165214        0.00022507430905       -2.10653744067679
H            2.78438107211364       -1.64488072352796       -1.46318909160022
H            4.64535089304966        1.54019402778698       -1.43102192892722
H            6.97110974576627        1.74346481186007       -0.73299990788153
H            8.74254564316469        1.78742081230408        0.80514162132444
H            9.24805137033802        1.13399284799894       -0.77775640012793
H           10.12776614168130        0.67638407903088        0.70273457761305
H            7.20221982534191       -4.28196605404228        1.61421134658008
H            5.59329053405775       -3.56337964034397        1.83373971931586
H            6.11262470647871       -4.11649717136342        0.21459952744439
H            4.49050993943593       -2.43953021756239        0.07565359061160
H           -0.21376461767014       -1.60039182136115       -1.76451725325230
H           -1.05641149092271       -1.19500574562339       -0.26118050384835
H            0.49671259687601       -2.02236999712327       -0.21394670153121
H           -4.71181733024820        2.95564095636860       -0.15395193573083
H           -3.76130705208219        2.91722202694699        2.73851075810413
H           -4.88169229339995        1.75451110762884        2.01528287711248
H           -5.34612015590112        3.45125117088433        2.16908150679947
H           -2.66064917068035        4.70313435515085        1.25939924249322
H           -3.14192581504509        4.83181043680457       -0.44097543457845
H           -4.29715262800813        5.18677408169611        0.83318136843087
H           -0.62081091452916        2.83463492403494        2.67082899412617
