72
 energy: 36.016208012451 xtb: 6.6.1 (8d0f1dd)
N           -1.55624995743997        2.92405052327878        2.13310020453365
C           -1.64726219770808        2.21956472684344        1.09981941034766
C           -2.86386280434507        2.10484413989707        0.23231266696637
C           -3.40998930459764        0.68624367854118        0.31485809010282
C           -4.40450663810294        0.27080735500632       -0.57385817470280
C           -4.93580350419593       -1.00367333961214       -0.51863894856056
O           -5.90931933999909       -1.48748118674311       -1.34079016899870
C           -6.49735670351366       -0.62327447789121       -2.27910342267281
C           -4.46459419204845       -1.91467323559195        0.45342447761372
O           -5.04629565618842       -3.14621680430008        0.43182370619340
C           -4.68668622511322       -4.07259246259750        1.42426446509015
C           -3.48386342888092       -1.49999116641194        1.33426585946850
C           -2.96357553386937       -0.21293992894532        1.26483507923656
C           -2.35969873318095        2.38042052610160       -1.20796649443344
C           -1.46842531888672        1.27539031445133       -1.78509078993211
C           -0.07723818655943        1.15869321173615       -1.20457593504055
N            0.58160232209535        0.06817501249317       -0.95472389186150
C            2.34397596398903       -0.29794739420727        0.07848832155457
C            3.12923501353271       -0.70060817476202       -1.11567053723854
C            4.52367270361329       -0.52086837131770       -0.60149512700110
C            5.18684767699622        0.67671484421038       -0.80191751298652
C            6.51832492540018        0.80228230072763       -0.45018089897850
C            7.18096961506866       -0.26563075473268        0.11888584899146
O            8.49115457881378       -0.26542877536834        0.49017492577900
C            9.25331224404261        0.88741944368960        0.24876011438477
C            6.48629485897125       -1.46861127837156        0.36554926730344
O            7.21928367098163       -2.46206644556788        0.93153031325049
C            6.61183795318639       -3.70636764442386        1.14985460478678
C            5.16314972239492       -1.58135479567048        0.01224777329242
C           -0.12197021000600       -1.19666880955468       -0.90016040295841
C           -3.99553758879955        3.09263096230400        0.61732984389391
C           -4.54342175072719        2.77918611371750        2.00765719839015
C           -3.56830499622486        4.55690633577655        0.55979171164871
H           -4.77280020759861        0.96189587890300       -1.31477384336692
H           -6.95954194997991        0.24564633174264       -1.79782727296818
H           -7.27076704519863       -1.21100605231029       -2.77252938757703
H           -5.77285355967914       -0.28303359995488       -3.02687556325700
H           -4.90107898159416       -3.69340293544043        2.42965255647669
H           -5.29877473894212       -4.95311460482667        1.23641304652154
H           -3.62814042638899       -4.34659337436254        1.35658393181512
H           -3.11427405563132       -2.16705723666154        2.09507696494212
H           -2.21436133740246        0.08450630995066        1.98093012378017
H           -3.22549024210365        2.50048768386891       -1.86245221813132
H           -1.80305242752741        3.31863933017335       -1.21626461414096
H           -1.99982868716541        0.32676864279498       -1.73766604906774
H           -1.30391152630520        1.50008671546844       -2.84579748638449
H           -0.82230221913271        1.64255157277506        0.65694052843378
H            0.50535770505567        2.07783126479221       -1.21645986042965
H            2.33204927235541       -1.03537824971869        0.87857452374637
H            2.48213057099934        0.74207399868106        0.33119076720520
H            2.97697923045708       -0.08516516268006       -2.00786838157932
H            2.92012894237477       -1.73368437712542       -1.38292743735745
H            4.68030717690151        1.51455072299073       -1.25533258280534
H            7.03423133487406        1.72636262520968       -0.65198652568582
H            8.86422833024099        1.75539773138409        0.78913029840234
H            9.30959513493881        1.12533872993678       -0.81929071235639
H           10.24954301590942        0.65625752617369        0.62158907954143
H            7.39759596848780       -4.34054952289246        1.55883253344319
H            5.80424626280754       -3.63722889986850        1.88104691404607
H            6.23520118027497       -4.14911997978833        0.22090874854974
H            4.61209662756837       -2.49165415198777        0.17938848625444
H           -0.20152223875542       -1.57123018955979       -1.91231478433501
H           -1.12603309506727       -1.14094733129128       -0.46638258678397
H            0.42006631401849       -1.93989548872470       -0.33738287229187
H           -4.80243464006601        2.94876814437150       -0.11070570803295
H           -3.77039353055253        2.93484388748447        2.75463544236340
H           -4.89158229553993        1.75054346443980        2.06488873800466
H           -5.37789942872293        3.44017740574436        2.22949844696067
H           -2.74301404958703        4.73109998907725        1.23954595727979
H           -3.28183301755519        4.85303009854652       -0.44520195666986
H           -4.39788715949518        5.18838803168933        0.86739990307807
H           -0.64793827597906        2.92330484898526        2.59142226023189
