72
 energy: 20.402263325151 xtb: 6.6.1 (8d0f1dd)
N           -1.64100140660214        3.13108987681784        1.91630902299203
C           -1.79648487486769        2.31117999407834        0.98019768359272
C           -3.08020878598032        2.18432727596910        0.19844420206052
C           -3.58986453937689        0.75524782112031        0.28683109331817
C           -4.59789047497738        0.31402333827432       -0.57417356070330
C           -5.09894639619592       -0.97169009502635       -0.49641220003531
O           -6.07748068020083       -1.48432308367279       -1.29517411673724
C           -6.67594403985774       -0.65251671444526       -2.25503505235529
C           -4.58822561246020       -1.86423883584857        0.47320698577800
O           -5.14046575441510       -3.10965436683949        0.47198136384052
C           -4.72063694142742       -4.03314473897588        1.44401105123188
C           -3.60093196704086       -1.42080908000387        1.33218061642359
C           -3.11063102189941       -0.12410823046368        1.23941395754554
C           -2.70950982737447        2.54302676460166       -1.26760559024835
C           -1.95771537147432        1.46579416750336       -2.04893752546407
C           -0.52594870818010        1.36149728415756       -1.65007421678083
N            0.16029816781782        0.34700465095836       -1.37961255695995
C            3.27672805064863       -0.56498484843901        0.42897712581619
C            3.43745354413296       -0.99393913708393       -0.99465604797342
C            4.67571448250256       -0.63271455691791       -0.18354768067534
C            5.36444271584410        0.61870180803588       -0.45223335082636
C            6.71217773565321        0.72658766192596       -0.25745967354054
C            7.48473199445978       -0.35160688586262        0.19729716689095
O            8.84341338398567       -0.35687384610145        0.36503864376975
C            9.56503075179795        0.81877421271596        0.11589464805982
C            6.84543459883531       -1.59551762912805        0.48827756725916
O            7.69304727473917       -2.58336010440576        0.90099888463537
C            7.16678873301033       -3.86257686519446        1.14071986172813
C            5.50480735850917       -1.73243866602508        0.30647343329953
C           -0.32552280203401       -0.99795851821402       -1.32507087273299
C           -4.22033273667294        3.12015150750087        0.69777341969611
C           -4.62154995077466        2.78723333924550        2.13444486006841
C           -3.87844456515936        4.60597834132243        0.59451504241765
H           -4.99736333972476        0.99256914608194       -1.31101622634328
H           -7.15566091554644        0.21874274327516       -1.79597709696817
H           -7.43535163362774       -1.26661113046065       -2.73685137218701
H           -5.95512817349754       -0.31620835917704       -3.00881250050374
H           -4.92482140210245       -3.67487786002669        2.45840742872840
H           -5.30201526197780       -4.93500569316773        1.25688021004221
H           -3.65457021298161       -4.26619728077291        1.35179383235636
H           -3.20011771400394       -2.07409590674569        2.09094708860708
H           -2.35306422913796        0.19236148257794        1.93975822153010
H           -3.63203372134832        2.75165022390688       -1.81357796916545
H           -2.10531274360996        3.45504597128125       -1.25659501959275
H           -2.43467305585753        0.49217839921912       -1.95561105886452
H           -1.94294165919584        1.74782156262385       -3.10576647477521
H           -0.99926468926475        1.65131930131625        0.60188607706406
H            0.03446442461796        2.29347053537936       -1.62790761644791
H            3.06171000452957       -1.28709553121397        1.20322040153280
H            2.88435791743245        0.42740873606773        0.61414800150617
H            3.11499133577946       -0.29449542402398       -1.75396114313123
H            3.28770654040548       -2.03027917815941       -1.25865830683972
H            4.78480357953030        1.44984778429255       -0.82512406047425
H            7.19324153956807        1.66684208084800       -0.48039749340860
H            9.21573667216866        1.65189422639049        0.73797545762473
H            9.51085411520753        1.10826452977433       -0.94039174416338
H           10.59856878462222        0.58354366297272        0.36996673739969
H            8.02312649310753       -4.49724882488680        1.36090788591394
H            6.47578579636553       -3.86182040342541        1.99347451525036
H            6.64178521177277       -4.25713629145881        0.26509590940070
H            4.99770255473601       -2.65842542425483        0.51357250680163
H           -0.17131651858742       -1.48087344855094       -2.29280756313421
H           -1.38179242303232       -1.08693827554468       -1.04926821803606
H            0.28700202153005       -1.50664707496959       -0.58405489241477
H           -5.08978157831201        2.92325080749795        0.05662515664919
H           -3.78948137737853        2.98053097436137        2.80372513527288
H           -4.91174364306550        1.74345907592893        2.22753115115835
H           -5.46398172467817        3.40665722798830        2.43525063639771
H           -2.98889573302738        4.82242588601395        1.17813655649866
H           -3.71101248148724        4.91170627951608       -0.43535929672782
H           -4.70561803537541        5.19094781402545        0.99194919174729
H           -0.71671276066954        3.15663963773185        2.34044011026800
