72
 energy: 19.377551655499 xtb: 6.6.1 (8d0f1dd)
N           -1.64442329653277        3.13273124313573        1.92145191548157
C           -1.79896378798383        2.31686018069494        0.98160722530425
C           -3.07661065796706        2.18500654702363        0.19462185931145
C           -3.58340170448199        0.75421657242188        0.28657214776038
C           -4.59117143578781        0.31277867690102       -0.57473581688772
C           -5.09279216860282       -0.97255011261208       -0.49725393448418
O           -6.07073062073032       -1.48436857691975       -1.29636585680147
C           -6.66998452149805       -0.65243563552801       -2.25590611588720
C           -4.58324422474907       -1.86489109031830        0.47358427959731
O           -5.13726770937030       -3.10874010926072        0.47207122728471
C           -4.72069035489989       -4.03282006397662        1.44470441903912
C           -3.59557541593349       -1.42183575732284        1.33272731406620
C           -3.10436650767554       -0.12522303087304        1.23957622470560
C           -2.71019661788409        2.54026870699234       -1.27363863097022
C           -1.94238982962566        1.45629990756690       -2.04078013066548
C           -0.50335739426668        1.32758512447358       -1.62657216895891
N            0.18098742509981        0.31187801747918       -1.34841910869180
C            3.23943750414214       -0.52460711086998        0.40786614148952
C            3.43772256873239       -0.96874223517407       -0.99674088742946
C            4.66086726474457       -0.61645691646171       -0.14266719018471
C            5.37244244870946        0.62212718351187       -0.42917978236737
C            6.72182184128069        0.72365604020630       -0.26420411838891
C            7.48517539697993       -0.35832108515733        0.18641126292383
O            8.83463743599263       -0.35301215687433        0.38336409898000
C            9.55656277369206        0.81959241619394        0.12228036206248
C            6.83896709091348       -1.59919996896959        0.47683590741281
O            7.68390783987243       -2.58792216867068        0.89322585267305
C            7.14984035389757       -3.86199358130407        1.13938822435637
C            5.49449907758716       -1.72453073405880        0.32804991805116
C           -0.33864098140386       -1.02352438465131       -1.31199689768533
C           -4.21380325433118        3.12152671151396        0.69502244272389
C           -4.61955900924416        2.78813308869116        2.13032158871806
C           -3.86692462415129        4.60589502195805        0.59409704366358
H           -4.98864131385908        0.99108807538550       -1.31252435267843
H           -7.14897644281986        0.21868517962010       -1.79619042380836
H           -7.43008063417367       -1.26645209026522       -2.73692906714342
H           -5.94996281338229       -0.31620601248477       -3.01026311949287
H           -4.92656865237879       -3.67365059721512        2.45869658813920
H           -5.30394469884160       -4.93322652213009        1.25725948546757
H           -3.65483330538578       -4.26771620971407        1.35241778765628
H           -3.19673204973837       -2.07507795164546        2.09251433290180
H           -2.34781919243650        0.19182905376390        1.94034959636152
H           -3.63373965895871        2.75412669184850       -1.81552921093956
H           -2.11547005596612        3.45640399631677       -1.26864537678704
H           -2.45624143945816        0.49817308315452       -1.96514411510600
H           -1.92620686859165        1.74330754987351       -3.09857279462729
H           -1.00589130476886        1.65208453144691        0.61370483470716
H            0.04363177396432        2.26921881520377       -1.60845381349982
H            2.95949157129257       -1.25409007161185        1.15157276176102
H            2.83856561598224        0.46194628233598        0.57368101726441
H            3.17096186470041       -0.28708242351254       -1.78834745256905
H            3.29619058362003       -2.01048633194958       -1.23970351752064
H            4.79410982988504        1.46257103183240       -0.77935677374855
H            7.20641611148852        1.66122247875431       -0.49103792383521
H            9.21030049235234        1.65862991044310        0.73597710216112
H            9.50723812712535        1.10097157533956       -0.93583933072939
H           10.58762935734965        0.58477128859971        0.38405176879075
H            8.00347372770665       -4.49584405758808        1.37654324533941
H            6.45746375122709       -3.85539547195236        1.98901293993497
H            6.63633001425679       -4.26169101096104        0.25798082914360
H            4.98591070767858       -2.64839444500853        0.55084335799142
H           -0.19713265108645       -1.48708282751466       -2.29070705797584
H           -1.39688148967675       -1.09584797355248       -1.03851382244946
H            0.26029361408946       -1.57810290789696       -0.58887207808824
H           -5.08079787073141        2.93111676027243        0.04995722492511
H           -3.79029957577384        2.98170268296385        2.80282263359730
H           -4.91350728481365        1.74507621157468        2.22179707395421
H           -5.46160064849247        3.40903989130274        2.42755493781960
H           -2.98169447403128        4.82053849353183        1.18342414627988
H           -3.69636724405285        4.91209090286147       -0.43477977241881
H           -4.69386623973992        5.19406976286893        0.98558944326884
H           -0.72162694522790        3.14959277289425        2.35082640786988
