25
 energy: -42.445536320485 xtb: 6.6.1 (8d0f1dd)
C            3.74590423984466        0.86165545334396        0.11416427375024
N            2.53128717926874        0.11829596547304       -0.07649076463086
C            2.64048886306449       -1.21025676768561       -0.31264415139519
N            1.41847059446890       -1.79013299959502       -0.32772601922557
C            0.43647460402644       -0.84921309120400       -0.11724978817312
C            1.10312602466075        0.42176318077027        0.01388271164697
C            0.38857328820388        1.54610915365749        0.20972623227237
O            0.10268374343854        2.69698099075782        0.31694538474666
N           -2.17016555773086        1.11671468008576       -0.10131658279620
C           -3.00726141129709        2.24596044509012       -0.12074056646913
C           -2.63382951079439       -0.00815820631831       -0.11741261040949
O           -3.39685950282213       -0.87967886537991       -0.16375608521243
N           -0.82661411868872       -1.07190663815616       -0.00015317184592
C           -1.14756250337133       -2.48157318024942        0.04192770193986
H            3.84093336935465        1.44415269754768        1.03965519682008
H            4.53337191332448        0.03813990032997       -0.00122805694382
H            3.87862323217536        1.69750883083113       -0.57115834113980
H            3.54188680960947       -1.76573540349114       -0.29526764083064
H           -2.31788193938932        3.10848363693156        0.03062351768673
H           -3.54591010197328        2.29828421108235       -1.07479085231501
H           -3.77194901748803        2.07654331130414        0.63977722018403
H           -0.71027364695839       -2.95526673555641        0.91993724312656
H           -0.75687785082777       -2.98208577589654       -0.84361877935744
H           -2.21604946088038       -2.61462934642577        0.15604584413041
H            1.26805415311504       -2.77612594101319       -0.31478414703224
