  72
        -99.32618438
 N         -1.5791203578        2.8750446858        2.5530875288
 C         -1.6847625331        2.1746994783        1.5235387212
 C         -2.8940114084        2.1465789058        0.6301932536
 C         -3.4308082389        0.7242398995        0.5430768549
 C         -4.3112081141        0.3824255498       -0.4319496350
 C         -4.6947125784       -1.0362175121       -0.7013836339
 O         -3.7967764384       -1.4992776052       -1.7565546260
 C         -4.4325531713       -1.9415657360       -2.9296385727
 C         -4.4788415362       -1.9071064506        0.5072924338
 O         -5.1448814032       -3.0546617944        0.4493850426
 C         -5.1248233888       -4.0298256984        1.3097407661
 C         -3.6008418189       -1.5076988440        1.5125242767
 C         -3.0475146534       -0.2456258947        1.5098064756
 C         -2.3901882033        2.6075970167       -0.7656235431
 C         -1.6129531355        1.5453705399       -1.5668948422
 C         -0.2907232574        1.2293895990       -0.9905616485
 N          0.2034839191        0.0146670685       -0.8151996735
 C          1.5678477990       -0.1536535761       -0.3735740830
 C          2.5173093945       -0.4801757877       -1.5435624948
 C          3.9440531996       -0.3508739459       -1.0881594886
 C          4.5990988245        0.8663014805       -1.1819403375
 C          5.9021542980        1.0090467295       -0.7315594241
 C          6.5761521256       -0.0659440816       -0.1707829171
 O          7.8375567105       -0.0425809390        0.2990698723
 C          8.5775831356        1.1538398988        0.2187048638
 C          5.9114398137       -1.3191479919       -0.0676244414
 O          6.6404386940       -2.3087567298        0.4862379535
 C          6.0805532259       -3.5945908464        0.6048033729
 C          4.6078927203       -1.4374298332       -0.5239552531
 C         -0.5360379262       -1.1774800899       -1.1546399227
 C         -4.0458815785        3.0752104968        1.1099590118
 C         -4.5708529598        2.6471534578        2.4783273253
 C         -3.6561437501        4.5504957560        1.1456252691
 H         -4.6622868671        1.1023969616       -1.1526544783
 H         -5.0993030045       -2.7864437871       -2.7310272281
 H         -3.6407111358       -2.2616345754       -3.6047737227
 H         -5.0041382633       -1.1349111947       -3.4016974161
 H         -5.7150197981       -1.1292915692       -1.0677749752
 H         -5.7519597008       -4.8659537628        1.0667167492
 H         -4.5398021802       -4.0106012974        2.2117244598
 H         -3.3635550459       -2.1810970763        2.3222698289
 H         -2.3727067335        0.0330500205        2.3031396851
 H         -3.2521558773        2.9071086472       -1.3606349646
 H         -1.7589241986        3.4874955067       -0.6329236573
 H         -2.2213743074        0.6508847839       -1.6890966373
 H         -1.4443548619        1.9725204641       -2.5637805616
 H         -0.8741771483        1.5332890466        1.1319554428
 H          0.3711733920        2.0564573180       -0.7767228884
 H          1.6097428303       -0.9552825955        0.3682210182
 H          1.9070302152        0.7692777476        0.1021422928
 H          2.3261343916        0.2260035386       -2.3535895789
 H          2.3222567533       -1.4882205373       -1.9101692354
 H          4.0992384620        1.7162823503       -1.6214446196
 H          6.3874114625        1.9664655855       -0.8263424693
 H          8.1074424185        1.9555168303        0.7965209336
 H          8.7049022070        1.4769757389       -0.8188414401
 H          9.5512469188        0.9242335244        0.6470795400
 H          6.8577582342       -4.2110444641        1.0522858881
 H          5.2018296348       -3.5912215136        1.2578212830
 H          5.8099936365       -4.0064694835       -0.3723424780
 H          4.0970225886       -2.3850659617       -0.4558984049
 H         -0.6667294295       -1.2640042049       -2.2349097512
 H         -1.5262803363       -1.1702188698       -0.6967208722
 H          0.0066340060       -2.0490842141       -0.7987407043
 H         -4.8585461094        2.9514104096        0.3846745167
 H         -3.8076266244        2.7998141797        3.2347349217
 H         -4.8641409510        1.5999740398        2.4757622601
 H         -5.4401455298        3.2447903692        2.7390164438
 H         -2.8096476776        4.6992401927        1.8086395516
 H         -3.4101408165        4.9292701155        0.1573558658
 H         -4.4925778512        5.1308930956        1.5257885350
 H         -0.7012322520        2.8386318830        3.0620730497
