25
 energy: -42.098106259638 gnorm: 0.006145010417 xtb: 6.6.1 (8d0f1dd)
C            3.11159180070186        1.14572040970942        0.03134257561910
N            2.27504621684856       -0.04839255703142       -0.01366872145904
C            2.86483535463438       -1.19438891024732       -0.04193186302570
N            0.94040175304086       -2.36695221846921       -0.02228882108440
C            0.26489193111144       -1.27406676964925       -0.00683974401640
C            0.90834588820283        0.01633423022433       -0.00388309940570
C            0.11938762029349        1.23181896897593       -0.01817300273656
O            0.57630783690203        2.35877376099939       -0.04826352111242
N           -1.25190610375510        1.02098859632003        0.00041302919645
C           -2.12680984242768        2.18043799861731       -0.00443617670045
C           -1.89928621169209       -0.20241338897553        0.01572302641353
O           -3.09798836097012       -0.28512292172990        0.03136988197743
N           -1.09205261540258       -1.33393087525467        0.00895296308431
C           -1.71668627361861       -2.64225504597634        0.01134785915656
H            3.54843972049444        1.24713947970806        1.02585085607566
H            3.91520505798176        1.06702247269691       -0.69912839642193
H            2.50556927433257        2.02976936670307       -0.17562337384464
H            3.91583666121559       -1.40410083535186       -0.03049048922215
H           -1.51340726210247        3.07868346506765        0.00448667083236
H           -2.75970640049762        2.16224065983398       -0.89317539052874
H           -2.77733143154266        2.15328011081012        0.87098388379461
H           -1.39721011013525       -3.19967473027977        0.89286691987694
H           -1.40899352783532       -3.19693128031913       -0.87607722050308
H           -2.79664214599941       -2.50938824815051        0.01907672734383
H            2.05259268431913       -2.21635319663126       -0.04726295540958
