25
 energy: -42.183765814810 gnorm: 0.008095465668 xtb: 6.6.1 (8d0f1dd)
C            3.07684066261012        0.14272557644433        0.80652517094636
N            2.30296225687863        0.54457975103604       -0.37429832661483
C            2.75125025395088       -0.87563077637852       -0.22206516346702
N            1.58196321266242       -1.64640217498878       -0.04912960176325
C            0.49309725461023       -0.80728414381037       -0.05368411691162
C            0.88067083329308        0.49427723524799       -0.25774442157675
C           -0.04826541216942        1.58886154166359       -0.35953285007592
O            0.24959935904752        2.73894784435587       -0.57571274076821
N           -1.36131035971009        1.14740910066465       -0.16978874667015
C           -2.41966770944599        2.14900769543931       -0.21573452979467
C           -1.78925503813810       -0.14099144637604        0.05938371567067
O           -2.94194663413181       -0.42922820501781        0.21168002746082
N           -0.78973119414851       -1.15075430206879        0.10518949550234
C           -1.20181316159249       -2.52452298839781        0.31683804904099
H            2.52511917070339        0.15341785146286        1.73695274574026
H            2.70429448015775        1.21999296001732       -1.03508165698949
H            4.08933522108393        0.51596863321383        0.87025436089921
H            3.52588770768767       -1.28258853292438       -0.86195499109958
H           -1.95429948944576        3.12023389590041       -0.36296139147476
H           -3.10240319149878        1.92882655304810       -1.03541228319954
H           -2.98124710710812        2.13285483793058        0.71728919006532
H           -0.67407071156559       -2.95101140443780        1.16891737530130
H           -1.01959118191669       -3.12349636445196       -0.57618183083681
H           -2.27222355031495       -2.51473310596052        0.52007866551459
H            1.53523584260349       -2.61222149001128       -0.33265452699884
