25
 energy: 137.195234617302 xtb: 6.6.1 (8d0f1dd)
C            4.35216066758527        0.38998329666926       -0.03843834848434
N            3.81049481666600       -0.88258333153382       -0.13397123383360
C            2.76218458961166       -1.41259234033235        0.28751925015175
N            1.48487728159383       -1.01031028427115        0.26394319375794
C            1.01520802330619        0.16706601438541       -0.08849791298335
C            0.35871917405178        1.16447116598769       -0.17726168330676
C           -0.80243104580658        1.91533553908402       -0.34774505433313
O           -0.75355373274676        3.07418229711020       -0.72514934880338
N           -1.90346106904512        1.18634346164596       -0.00266422017868
C           -3.10455715920360        1.89926393760753       -0.17065198152950
C           -1.82596343746398       -0.64411700267214        0.92696407933906
O           -2.52173563320555       -0.38027113510875        1.82075840687165
N           -1.02061088822491       -1.34070990978071        0.33566021088275
C           -1.14311616288672       -2.37543947896352       -0.62443025792355
H            4.66773555104663        0.35961058761312        0.99571587785570
H            5.16708699866300        0.28040109094554       -0.73280288033471
H            3.57429136759477        1.19086879263489       -0.18969233163115
H            2.92234528011353       -2.40197184612776        0.67818067051392
H           -2.81640730954741        2.87175734121165       -0.59662379954559
H           -3.74262746937269        1.34938486829944       -0.86054852640449
H           -3.64238653924346        2.01099504282119        0.77472775874543
H           -0.66131728064180       -3.26853377962144       -0.22386990386366
H           -0.66995786047569       -2.13360113501304       -1.56584303032068
H           -2.19114580592535       -2.60116286115637       -0.78417841329061
H            0.76928023908080       -1.65959284192146        0.61560968364322
