25
 energy: 10.396861598927 xtb: 6.6.1 (8d0f1dd)
C            3.54035382622466        1.07996100903997        0.10586971833932
N            2.43927043067926        0.14695548621801       -0.06267937137929
C            2.56940761677402       -1.25714038079438        0.06799110638867
N            1.31446139274835       -1.80123596789184        0.13441048359319
C            0.39009647658023       -0.83529996222726        0.08627775277870
C            0.98076731162250        0.41910885894273       -0.03206177048297
C            0.03296509310942        1.48242058971176       -0.13937159188512
O            0.23396770034508        2.68184842517215       -0.26841837703997
N           -1.38681249763464        1.03479674055630        0.00989467522957
C           -2.38890253640781        2.07850605630460       -0.09490888508263
C           -1.89093036060522       -0.20742175092488        0.20858871857895
O           -3.05990436353447       -0.48926439736495        0.37549716799541
N           -0.92677236720329       -1.19816606911501        0.10482746249038
C           -1.33792411818506       -2.55869470012328       -0.16325582378346
H            4.07608075394481        1.01648267073688        1.06210016071068
H            4.28800001759971        0.98133939076842       -0.69533632040700
H            3.17248554587405        2.10238476267182        0.07673000307794
H            3.45563916441682       -1.86139831125604        0.13048581156052
H           -1.79215271438954        2.97117668658909       -0.24346417994356
H           -3.04804889729020        1.90779551683661       -0.94975914038373
H           -3.01811537279067        2.13680325082741        0.79809924252131
H           -1.00968665730382       -3.24184034303332        0.62338145185096
H           -0.97530359301826       -2.92755852886960       -1.12643529863812
H           -2.42493033169622       -2.53844136623171       -0.20155997436752
H            1.03836758096857       -2.77593454553717        0.13008364484849
