25
 energy: 118.572962364304 xtb: 6.6.1 (8d0f1dd)
C            4.75212379684916       -0.03432249157424        0.10348564813626
N            3.91653462820983       -1.03322504024910       -0.04617943865256
C            2.70024127641860       -1.30217512568290        0.25828414178523
N            1.55034245899585       -0.56779240525967        0.20832171861522
C            1.47232671400687        0.78709367518969       -0.13798199597681
C            0.34742218943580        1.50754031765806       -0.25513523172846
C           -1.01732787667758        1.70875749722525       -0.24790713550892
O           -0.29758326762451        2.81901116413996       -0.57765027953311
N           -2.13772388131216        1.22114143570931       -0.05991105364726
C           -3.30978805361039        2.02296151506897       -0.18441703485430
C           -1.71703831183509       -0.96103709802443        1.14386762353868
O           -2.29962590800182       -0.52812809535467        2.03913221534029
N           -0.99854192454508       -1.54007883013137        0.38384488814283
C           -1.11977081966262       -2.49395732340680       -0.65312372495011
H            4.89157530046845        0.37235307174912        1.08336626720308
H            5.55623156677554        0.01129956969532       -0.60760233240368
H            2.51651317018806        1.23261719791327       -0.24223061763302
H            2.59000963795391       -2.33839328191354        0.56141584581255
H           -3.03086308166097        3.03600102798442       -0.47246547697110
H           -3.92632032528692        1.55565387918175       -0.94621975917435
H           -3.85144789272301        2.04577635222632        0.76041125563696
H           -0.56933272595367       -3.37040510388320       -0.32074200975271
H           -0.72660013814463       -2.08311442080912       -1.59335781728259
H           -2.16145674725226       -2.77683855528864       -0.79039811942466
H            0.70537184954078       -1.14440854870198        0.39991114002381
