25
 energy: 59.016029334709 xtb: 6.6.1 (8d0f1dd)
C            4.02791618791956        0.67993096014490        0.04184001041135
N            2.84681316269971       -0.01992390419987       -0.17285649558620
C            2.58474996986015       -1.18022705878495        0.23570432106110
N            1.30215938731307       -1.53725983091482        0.28352546364073
C            0.39349588141943       -0.52228463560004        0.05810820884172
C            0.74212410312466        0.73588017949118       -0.12324479637494
C           -0.31033649398747        1.66051891710992       -0.30597458786499
O           -0.19781664937224        2.77373035079173       -0.75881491026522
N           -1.58860515175424        1.13438331908829        0.12631528284725
C           -2.71332698403848        2.00027868415261       -0.11907010254887
C           -1.87515365448049       -0.14901908013690        0.55141281688272
O           -2.93771449124217       -0.47056745487623        1.03323894398490
N           -0.88854642350842       -1.06563033642681        0.20828934547227
C           -1.21696449768321       -2.39210704144740       -0.33210686070576
H            4.42929167815835        0.44517231892273        1.01567298759101
H            4.66681470183368        0.43883938062381       -0.79557630375200
H            3.83510903575984        1.74663168066800        0.08678199847002
H            3.33454695883600       -1.89733579934771        0.53624503936271
H           -2.24044557003933        2.90788305376158       -0.49768737234242
H           -3.35187896552883        1.55707798783461       -0.88002731800888
H           -3.31314502376760        2.16556165381327        0.77637141793507
H           -0.86096770267667       -3.21772857317303        0.29252202253201
H           -0.79546944565327       -2.55693371894582       -1.32318179186014
H           -2.29546528122655       -2.49047103775000       -0.43808847149763
H            0.95044326702274       -2.42782528928150        0.61267574515833
