25
 energy: 19.849620962913 xtb: 6.6.1 (8d0f1dd)
C            3.62989487429532        1.00454705124809        0.09495145338487
N            2.47463461099102        0.14735319665066       -0.07711259617441
C            2.55963471755070       -1.24275381060721        0.10769527445480
N            1.30092418716180       -1.74549137775512        0.21464755475978
C            0.39072155553824       -0.76816133200368        0.11335716389126
C            0.98490107710657        0.47965703838946       -0.04561831420309
C           -0.00383918216914        1.52011816184452       -0.17200285181132
O            0.15293936116807        2.71345135780381       -0.36730166474647
N           -1.41732329687367        1.05353071703502        0.04684301524898
C           -2.45152982255671        2.06137973432346       -0.10344245900532
C           -1.89326282780269       -0.19186789853124        0.30342010793568
O           -3.04849393620548       -0.48835475540063        0.53100131473390
N           -0.91973680593305       -1.16751698706141        0.16366685434861
C           -1.30456097448258       -2.51938920217085       -0.20071782461647
H            4.15714216516205        0.90607622500025        1.05073708608874
H            4.35373313989382        0.85586364812662       -0.71694793322011
H            3.36537993587845        2.05553865071545        0.08471768407512
H            3.41713186406919       -1.89234951022960        0.16576870520801
H           -1.88451454055576        2.96248278826125       -0.30866567777719
H           -3.11402149025989        1.82913318537836       -0.94128254152679
H           -3.07879997917512        2.14453773956494        0.78946263345108
H           -0.97454112089791       -3.24597094227288        0.54468678338016
H           -0.92312594296039       -2.83386952628588       -1.17653900940773
H           -2.39039169859651       -2.52744353800746       -0.25732405459736
H            1.00669051949190       -2.71351400498581        0.23273394823854
