25
 energy: 87.277106519449 xtb: 6.6.1 (8d0f1dd)
C            4.29923612262276        0.40317385523058       -0.02977284119645
N            3.20181204927842       -0.37121942263130       -0.36783822542456
C            2.66242362788204       -1.27543911154346        0.29606982780790
N            1.32612352216043       -1.35944789895650        0.24503355914623
C            0.42782567782422       -0.35773310766554       -0.00737137778797
C            0.51925024804963        0.93419494360616       -0.18690222366858
C           -0.56032708786279        1.76918771486481       -0.33567088685032
O           -0.55633330016671        2.89940331965212       -0.74696024299835
N           -1.77717184505179        1.11121178047503        0.11181319854214
C           -2.95364390497711        1.90000693572358       -0.12065426985981
C           -1.86570565001327       -0.18780514721358        0.66916146294907
O           -2.74199545734695       -0.49544601143841        1.43222772060801
N           -0.85096913474713       -1.03158990240131        0.19615902428753
C           -1.13387267496692       -2.29681183683737       -0.49731096660655
H            4.56886779970251        0.17749744282898        0.97990390985121
H            5.02611227220547        0.20921601058801       -0.78362399535110
H            3.86330520553991        1.39663870155062       -0.12459803654865
H            3.16437921864674       -2.09158222836319        0.80305239962711
H           -2.57853151958718        2.82635018291690       -0.58266266821824
H           -3.57912492565864        1.36174247005062       -0.82148972729715
H           -3.51727500482735        2.08237026401917        0.79162446599863
H           -0.74661451738348       -3.18998099008561        0.01514696922150
H           -0.69440764092110       -2.30703358550235       -1.48193155422436
H           -2.20320290531864       -2.45688091691494       -0.63341254706392
H            0.86080075340643       -2.11110140023515        0.73079053655362
