25
 energy: 112.121332182372 xtb: 6.6.1 (8d0f1dd)
C            4.96520821630356       -0.34057982527006        0.25051022672512
N            3.79182557231011       -0.71694461462622       -0.09849238771185
C            2.62818604854542       -1.15480297261500        0.29224752108697
N            1.50721728471472       -0.43918209237611        0.10373696971557
C            1.47151363554645        0.90997472181099       -0.17744353283263
C            0.29623218728734        1.52856537508127       -0.28062840368518
C           -1.06502073806736        1.72188775176393       -0.27420560218113
O           -0.20801164268826        2.82280057790016       -0.53034478570833
N           -2.23831315393623        1.34701363203185       -0.16553981680715
C           -3.38675653768922        2.20154440614300       -0.28280558265408
C           -1.61558825896657       -1.24459833262058        1.32767757586757
O           -2.02369678044790       -0.68912421341477        2.25282571231289
N           -0.98272328008664       -1.72275109989881        0.43293373786542
C           -1.12367145310601       -2.67073453343626       -0.62234223268147
H            5.24824666604323       -0.06791532315795        1.25828083499043
H            5.68663175748995       -0.23996518399847       -0.54409821441994
H            2.41664522441444        1.41013308296273       -0.31957561720409
H            2.49825100392889       -2.19755899172335        0.54629339536818
H           -3.15139467452550        3.24315390426283       -0.51646085753284
H           -4.02757364504945        1.78196085688684       -1.06044909911642
H           -3.92949107604462        2.14744211790960        0.66240179292289
H           -0.62923747908734       -3.60213317725794       -0.33799796797888
H           -0.64826059015774       -2.27391199999244       -1.51926183584373
H           -2.17281315331397       -2.87374244816932       -0.83374943503532
H            0.60480917155490       -0.89150282945190        0.26352151673249
