25
 energy: 75.808677334734 xtb: 6.6.1 (8d0f1dd)
C            4.21303309726224        0.48910798405544       -0.02072613825785
N            3.05769530268775       -0.22124652786550       -0.31128020936226
C            2.62343632924438       -1.22675051277243        0.28785167634428
N            1.30322083680382       -1.42643905609737        0.25009456061707
C            0.40979117388829       -0.40652763241616        0.00376054172023
C            0.61509231897125        0.87547555494784       -0.15202410881317
C           -0.47459175759004        1.72323977322757       -0.33757746239928
O           -0.41995069697428        2.83648189604038       -0.79641403006621
N           -1.70359391282822        1.12191897903928        0.11547994267259
C           -2.87046008601684        1.92947719181886       -0.12344955260570
C           -1.85147436691493       -0.16852174923053        0.63890232225472
O           -2.80177956162711       -0.47533609393223        1.31489537973578
N           -0.86839943680324       -1.03841645991904        0.18821101016579
C           -1.16395583380197       -2.33027094762015       -0.44153015507385
H            4.51386990010721        0.23894934371409        0.98326825242920
H            4.89561941861350        0.23002976262806       -0.80685776086462
H            3.91893828072257        1.52657627382743       -0.11048742169778
H            3.23092261165785       -2.00377033103264        0.73269917772018
H           -2.46971191041303        2.84685054916806       -0.57353319394593
H           -3.50285464588703        1.40489962428130       -0.83382015460656
H           -3.44515418350849        2.11986179117128        0.78170420693126
H           -0.78449437918102       -3.19969240403348        0.10922270050108
H           -0.72693170385794       -2.39071471721809       -1.43199022296116
H           -2.23751940692096       -2.47117420559032       -0.56935388594757
H            0.88553478036523       -2.20996539910234        0.73275393195162
