25
 energy: 110.083662947245 xtb: 6.6.1 (8d0f1dd)
C            4.93457187704695       -0.23925535626967        0.22580655513042
N            3.86604911766901       -0.91344866228962       -0.04005874406459
C            2.63682624567089       -1.17647661708575        0.23733048171708
N            1.53557471558933       -0.39578660312141        0.21360386937529
C            1.48923593635395        0.93466190476515       -0.14376970861208
C            0.30415889239523        1.52416636270914       -0.28749143136397
C           -1.05862726676069        1.69455615009716       -0.26435586636421
O           -0.23455424655622        2.81313892854667       -0.54102554637600
N           -2.22961322492360        1.31459014572754       -0.14910700596969
C           -3.37061742250400        2.18193033440308       -0.27382098481424
C           -1.60386930853123       -1.20748981921987        1.31588520597244
O           -2.02918398746258       -0.65705967273132        2.23639444433491
N           -0.98343733209175       -1.72275687816202        0.43449505885821
C           -1.12469424287749       -2.66766446322214       -0.62254231792719
H            5.16731496791013        0.12625197850818        1.21384092655202
H            5.71493697429745       -0.30748566678843       -0.51553983954139
H            2.44524426945071        1.40884055857992       -0.31629193675189
H            2.43330022688276       -2.22908752082732        0.38960354457708
H           -3.13640532698199        3.22853220362195       -0.51498552304803
H           -4.01560819190413        1.77162889882479       -1.05378562502843
H           -3.91684055563142        2.14632579451104        0.66963679647145
H           -0.63385330951469       -3.59893553473110       -0.33517371846310
H           -0.64186592651521       -2.27672467367726       -1.52121430760236
H           -2.17514489106745       -2.85935278599704       -0.83426425697780
H            0.63823088263781       -0.87836198258267        0.28553898404969
