25
 energy: 51.272986025388 xtb: 6.6.1 (8d0f1dd)
C            3.85505578148965        0.87397947870145        0.07806260133745
N            2.76429473099791        0.00908162756033       -0.07098007644838
C            2.59395972383036       -1.22483154438405        0.16112295231453
N            1.31635990735800       -1.64976297689897        0.25719903207833
C            0.38068804326956       -0.64147799737482        0.09584563432827
C            0.80386105460245        0.60993274524991       -0.07990347561869
C           -0.18817535929991        1.60075249824333       -0.21985261772532
O           -0.01627630216055        2.75813535606840       -0.51260802586747
N           -1.51511244395977        1.10400101168457        0.10241147239799
C           -2.57543010865733        2.05441776313796       -0.10420720154944
C           -1.90375751613710       -0.17808963405930        0.39835943345128
O           -3.03657398131047       -0.49457906418807        0.69750786780734
N           -0.91536823188004       -1.12605013369113        0.19753826933654
C           -1.27535920235591       -2.47249008520176       -0.23998778297580
H            4.32624624882111        0.77768300643796        1.04899995531445
H            4.53148900761022        0.72758450484351       -0.75593421913755
H            3.56268477859234        1.92370576272682        0.08160598712252
H            3.38531085193151       -1.96589975199987        0.29529435048413
H           -2.02005445076653        2.95148624469735       -0.37265695644286
H           -3.21679936390624        1.74486988349034       -0.92794888793883
H           -3.18965791259673        2.16791990771083        0.78831489306845
H           -0.93599669315052       -3.23686486377486        0.46290750080628
H           -0.87966183232940       -2.73552318670133       -1.22423420540635
H           -2.35918595936978       -2.51628726169645       -0.31501268340310
H            0.99035090102393       -2.60563523056664        0.35460098558539
