  25
        -42.10797812
 C          3.1477938447        1.0811016164       -0.0288782680
 N          2.2819490972        0.0753950036       -0.0079528244
 C          2.5445180955       -1.2513608090       -0.0153266041
 N          1.3791928855       -1.9547745967       -0.0089694002
 C          0.3482567844       -1.0680707404        0.0023146541
 C          0.8942466549        0.2043807702        0.0069626672
 C          0.0722424999        1.3924277261        0.0025347603
 O          0.4744483800        2.5310233931        0.0035686193
 N         -1.2858813375        1.0659634947       -0.0033416039
 C         -2.2379813003        2.1669296247       -0.0201719684
 C         -1.8554896689       -0.1936905309       -0.0098480267
 O         -3.0421843069       -0.3627855155       -0.0225767850
 N         -0.9744346576       -1.2985428812       -0.0007373876
 C         -1.5293937699       -2.6367993741       -0.0072914731
 H          5.4786542126        1.8456622216        1.6520210358
 H          4.2034587079        0.8755693680       -0.0666487073
 H          2.7665636412        2.0863788939       -0.0201517730
 H          3.5200356082       -1.6906351335       -0.0309074914
 H         -1.6787216782        3.0986018404        0.0239729217
 H         -2.8349013822        2.1280497060       -0.9320093638
 H         -2.9119691635        2.0863499779        0.8329735833
 H         -1.2428269421       -3.1754920484        0.8971552061
 H         -1.1996261777       -3.1843889956       -0.8908052140
 H         -2.6150404260       -2.5415679143       -0.0329411426
 H          1.3123884854       -2.9618236892       -0.0084914277
