72
 energy: -99.357841799658 gnorm: 0.007247181739 xtb: 6.6.1 (8d0f1dd)
N           -2.28914285143062        2.22531036826512        2.51884372101626
C           -2.26037639745171        2.59400916952314        1.31979274465705
C           -3.17249566272810        2.03941611139578        0.25665934354870
C           -3.60776268087457        0.59660669764071        0.40490183055335
C           -4.51108760116878        0.06859980964548       -0.52420369562207
C           -4.92016302592324       -1.25375269718457       -0.47317740434540
O           -5.79399851532650       -1.83401578763978       -1.31964157973258
C           -6.41647842078050       -1.05695282237036       -2.31534481465011
C           -4.40082784559470       -2.10828139670951        0.53937512359825
O           -4.84041956715593       -3.37914136039427        0.51066849256638
C           -4.40845583417988       -4.27736058277719        1.50682337125352
C           -3.50817295849650       -1.57729864820625        1.45851531266407
C           -3.12321531454440       -0.24660421268402        1.39523351744873
C           -2.52829496351814        2.24687233695657       -1.13168290425282
C           -1.51112672182643        1.16671875915931       -1.50701973759525
C           -0.31373537483593        1.11230756640430       -0.55664382513988
N            0.60289563731188        0.05492135028033       -0.90923865532504
C            1.96832854605724        0.20179006781366       -0.46585855049857
C            2.95605933929553       -0.36288116899659       -1.50537940203323
C            4.36656680627794       -0.17060077788411       -1.03350933187081
C            5.02582399673466        1.03320912774960       -1.24682061222686
C            6.31219496188425        1.23468768289601       -0.77551952865426
C            6.97318734310389        0.23369109755662       -0.07435399525980
O            8.21512099999509        0.31911200624713        0.43233003574635
C            8.94955386128566        1.50985901091314        0.26386215610959
C            6.30950801086105       -1.00747168292970        0.14516157175225
O            7.02275736684034       -1.92512496648211        0.82318112084800
C            6.46596815177317       -3.19593618489801        1.06401183107024
C            5.01920538341119       -1.18190049109455       -0.33459694212333
C            0.05299641829050       -1.27496440398402       -0.78675358271168
C           -4.46514328155062        2.98279478825790        0.38955056191350
C           -5.28278376655809        2.59235873910065        1.61657227203533
C           -4.07441034761384        4.39102979008461        0.41499075336896
H           -4.90707829699439        0.70407349899580       -1.29931810617108
H           -6.98937219325035       -0.23222738750042       -1.88033099151727
H           -7.09573181160426       -1.73288913641623       -2.83115824396330
H           -5.68873185812584       -0.66196864375904       -3.03132757260510
H           -4.69348454891780       -3.93416668571685        2.50562309969813
H           -4.91089637686811       -5.21818952028117        1.29106893966806
H           -3.32507758440963       -4.42763778821249        1.46722525065611
H           -3.10596886222516       -2.19647437560624        2.24386766145526
H           -2.45352398240042        0.13612674622193        2.14636768555028
H           -3.30613452456596        2.24896348655562       -1.89581846477548
H           -2.04549186450222        3.22519439343023       -1.16060357831707
H           -2.01106981172814        0.19901544340241       -1.51727412202228
H           -1.14384715757229        1.36698230896709       -2.51485228625810
H           -0.68232353746721        0.97817181468355        0.47447783075377
H            0.22293132844694        2.06242627518401       -0.60544861828636
H            2.13709754696896       -0.30059157826797        0.49913237081097
H            2.18545970796977        1.26296335277704       -0.33027779221922
H            2.79743340639093        0.16109144578299       -2.44835459972231
H            2.75677450980684       -1.42216930802682       -1.66646503140362
H            4.53498600036219        1.82271896370171       -1.79480576678012
H            6.79853336369667        2.17828176136695       -0.96164161722972
H            8.44698695212282        2.35951757253066        0.73586611422694
H            9.12081207536984        1.72808421351548       -0.79435341150137
H            9.90454365250973        1.33620265085296        0.75601853622253
H            7.22808489576266       -3.75046562051561        1.60820883193617
H            5.56143725763095       -3.12817699414969        1.67650743224500
H            6.23734914711758       -3.71626960744550        0.12890163543103
H            4.50895991547265       -2.11878760582672       -0.17459891121429
H           -0.52206515799207       -1.52772435243568       -1.67838244472948
H           -0.60877508977627       -1.35712249655256        0.08470338928589
H            0.85329604205303       -2.00258426534361       -0.68417080333858
H           -5.04730266177971        2.78866481234457       -0.51926343715835
H           -4.65368838093319        2.56797358358309        2.50347058486794
H           -5.72590613151610        1.60871434164856        1.48724562670184
H           -6.08065040270048        3.31395593232334        1.77187572768168
H           -1.64938205737035        3.42439342258589        0.95494408512745
H           -3.78516360942980        4.90384841991662       -0.48286225659438
H           -4.07874492128222        4.94188279910740        1.33646547052783
H           -1.68983507284714        2.72133035343815        3.16987342747039
