  25
        -42.13009494
 C          3.1593836354        1.0930087473        0.0142459837
 N          2.2948235605        0.0805674233        0.0028338626
 C          2.5543836677       -1.2364151778        0.2129759438
 N          1.3985683283       -1.9374030604        0.1726572939
 C          0.3748495407       -1.0601654492       -0.0734317344
 C          0.9331084136        0.1877646116       -0.2015077919
 C          0.1091633860        1.4322350273       -0.4326378703
 O          0.5500993062        2.5191648220        0.0954440125
 N         -1.2918934604        1.0514842434       -0.0140736714
 C         -2.1616888222        2.1677886036        0.2553781888
 C         -1.8412871252       -0.1925339353       -0.0088447957
 O         -3.0210428199       -0.3929730213        0.1242399994
 N         -0.9528813864       -1.2984576633       -0.1222829722
 C         -1.5019044370       -2.6360296812       -0.0960090565
 H          4.2016080882        0.9011863328        0.1836379631
 H          0.0002931989        1.5402253389       -1.5574976760
 H          2.7667500670        2.0899951305       -0.0982999373
 H          3.5265385662       -1.6526320212        0.3808083296
 H         -1.5404006624        2.9844075772        0.6268629567
 H         -2.6753576966        2.4950775921       -0.6535529051
 H         -2.9145129803        1.8789932429        0.9872098541
 H         -1.2958131307       -3.1295501467        0.8560762828
 H         -1.0957729463       -3.2260486887       -0.9179522199
 H         -2.5820716343       -2.5487564234       -0.2119768258
 H          1.3247155565       -2.9357542078        0.3040390314
