25
 energy: 0.000000000000 xtb: 6.6.1 (8d0f1dd)
C            3.23720132972391        1.16630909158653        0.08434468864950
N            2.29877796055224        0.07527476373246        0.03981602671198
C            2.58028186251803       -1.21425391179017        0.03006175752192
N            1.43813944744728       -1.93419254010258        0.00098261751768
C            0.39035684826767       -1.05887462812143       -0.00790371763344
C            0.93510047688824        0.21347817468824        0.01709077332874
C            0.09450143016486        1.40504290868848       -0.00410946993748
O            0.49712746915594        2.54126690785742       -0.00342325656480
N           -1.25076628431515        1.06271869620815       -0.03085477937476
C           -2.21907191394203        2.15522079838987       -0.05001256521996
C           -1.81739470187490       -0.20012724136556       -0.04692818139228
O           -2.99983858926755       -0.37846413507442       -0.07008877579474
N           -0.92618577614240       -1.30210203518959       -0.03682761236648
C           -1.46982251276835       -2.64643077634382       -0.06029819901142
H            3.71247229913541        1.21471443890471        1.06488839270555
H            4.00791460421487        1.03430799217987       -0.67357688121503
H            2.69909982127087        2.09770098766290       -0.09130154035862
H            3.56654087521359       -1.63682977417947        0.04233139674524
H           -1.67107945562430        3.09322822573871       -0.02552706696334
H           -2.82428927394145        2.09428605349656       -0.95318074103337
H           -2.87644002486466        2.07745706351925        0.81450059976605
H           -1.17061985538665       -3.19584861009707        0.83242224714061
H           -1.14560246782873       -3.17511580834413       -0.95688266944647
H           -2.55549768731684       -2.55659960601237       -0.07459039105944
H            1.38130842369251       -2.94313824728853       -0.01389874052104
25
 energy: -0.883016999523 xtb: 6.6.1 (8d0f1dd)
C            3.23929179480162        1.18455516457564        0.08600075095420
N            2.30266864250822        0.08750838863902        0.03809468922635
C            2.58043595732604       -1.25472929251609        0.03032244119927
N            1.40794552257415       -2.00177413774491       -0.00017300840753
C            0.40183011373241       -1.06650791503548       -0.00833980026496
C            0.93000435470083        0.22179332949634        0.01554563621217
C            0.10172248778570        1.40768105135727       -0.00417555088608
O            0.49369379894386        2.57602153730434       -0.00207936053613
N           -1.26042009625809        1.06626610784104       -0.03120515120816
C           -2.22977568260192        2.15803033300211       -0.05030351781465
C           -1.81599265791607       -0.18792624119419       -0.04783539684756
O           -3.01145098754818       -0.37362687013921       -0.07148367054257
N           -0.92668783903823       -1.28875922819633       -0.03708325604305
C           -1.44506996819030       -2.63249129061668       -0.05939183558386
H            3.72534240494105        1.24243090243900        1.06442134257908
H            4.01055762238917        1.06433076434815       -0.67665566366437
H            2.70587260718642        2.12116599337373       -0.08540736549628
H            3.56641508548881       -1.65387298245162        0.04422881624595
H           -1.68306148445012        3.09832923372391       -0.02600600527369
H           -2.83732250194404        2.09953543729290       -0.95328858511861
H           -2.88945490877772        2.08266594357816        0.81385721193262
H           -1.12196876818084       -3.17171979618786        0.83307273012806
H           -1.09697291892794       -3.15213144866956       -0.95414058810290
H           -2.53010412795416       -2.55827142804620       -0.07392237002566
H            1.29471585438184       -3.07947476742947       -0.01701858046708
25
 energy: 9.793792847234 xtb: 6.6.1 (8d0f1dd)
C            3.24077857083655        1.19317309210339        0.08690405583589
N            2.30526384580874        0.08972906836964        0.03561001802665
C            2.57228554457636       -1.29069538856229        0.03150845604496
N            1.37443965358766       -2.06354286256673       -0.00081992577610
C            0.41234950680075       -1.07149888113931       -0.00888786685603
C            0.92613461061900        0.22447815930647        0.01376476296598
C            0.10806258297716        1.40287880522034       -0.00389414695198
O            0.48049717748367        2.58526885607396        0.00025044802142
N           -1.27147730101180        1.07559182454446       -0.03173526092620
C           -2.24049960267525        2.16687573981574       -0.05075353203818
C           -1.81149659622749       -0.17177422072167       -0.04883193709302
O           -3.01063675343470       -0.36943937349764       -0.07343983847011
N           -0.92608904377070       -1.26595079658298       -0.03738151246069
C           -1.41237146680218       -2.61455244863032       -0.05823963170292
H            3.73687844142802        1.26476440981758        1.06209748655893
H            4.01237476042308        1.09480034239379       -0.68130780770048
H            2.70688642069991        2.13381522555888       -0.07783992121749
H            3.56440471503162       -1.65795367984261        0.04727489014148
H           -1.69764354962976        3.11017617318400       -0.02662847230839
H           -2.85070705927472        2.10734841448678       -0.95282999056337
H           -2.90262687499008        2.09044400568157        0.81239213988249
H           -1.06357911388964       -3.14168061807802        0.83419260405825
H           -1.03854344736462       -3.12376238054958       -0.95096052582389
H           -2.49748441588029       -2.56920564379526       -0.07320762249888
H            1.19501369965114       -3.21025903384619       -0.02020295695377
25
 energy: 18.466011786893 xtb: 6.6.1 (8d0f1dd)
C            3.24105513368874        1.19616741882123        0.08702820366486
N            2.30700759925885        0.09013298369032        0.03423214702965
C            2.56704969455914       -1.30298407812779        0.03279674253589
N            1.35974540682754       -2.08835673671655       -0.00078021848658
C            0.41626909593922       -1.07547091464590       -0.00927163637636
C            0.92532500181869        0.22281763385334        0.01292152584697
C            0.11082499312052        1.40133310673676       -0.00344647924174
O            0.47330610840335        2.58443272221019        0.00182641608171
N           -1.27675000593163        1.08382174860746       -0.03216837393892
C           -2.24483982482658        2.17444533971800       -0.05110797113411
C           -1.81086754322074       -0.16453116951313       -0.04954460300201
O           -3.00956399354386       -0.36960439188669       -0.07486174845765
N           -0.92617092083046       -1.25337118469268       -0.03763316632633
C           -1.39652412124173       -2.60651214834261       -0.05754048598790
H            3.74129469445541        1.27086132829243        1.06016681353144
H            4.01104564906552        1.10837717632418       -0.68447850433558
H            2.70432648510329        2.13743888388709       -0.07326345797171
H            3.56620100590498       -1.65140818893379        0.04917722094632
H           -1.70475802509780        3.11905445501167       -0.02703791737562
H           -2.85580737090179        2.11310593386272       -0.95280673875680
H           -2.90754542296593        2.09623549901538        0.81171814267592
H           -1.03575737224665       -3.12476026892697        0.83576167841895
H           -1.01053233480578       -3.10801915031207       -0.94986613589573
H           -2.48141188055620       -2.58030428846303       -0.07283307141851
H            1.14929225299637       -3.28387292072554       -0.02195446983157
25
 energy: 23.996664863299 xtb: 6.6.1 (8d0f1dd)
C            3.24187143141142        1.19916161610379        0.08714372518605
N            2.30874468612910        0.09290370930476        0.03362317668488
C            2.56651993104534       -1.30209441309296        0.03412279458083
N            1.35748623535593       -2.09298353690114       -0.00043962128704
C            0.41813950089874       -1.07813365763741       -0.00953234877717
C            0.92594307383926        0.22134361902571        0.01240748572061
C            0.11197016889583        1.40185067355139       -0.00343176560885
O            0.47032556976940        2.58305002539797        0.00244733202188
N           -1.27794456126712        1.08765211259607       -0.03247647031093
C           -2.24582944173889        2.17704974260997       -0.05123877882199
C           -1.81118658963321       -0.16318273895595       -0.04978682184431
O           -3.00894881005308       -0.37093825311142       -0.07525636718449
N           -0.92605974812587       -1.24858213983900       -0.03777448905742
C           -1.39390957431052       -2.60376499934003       -0.05731323458090
H            3.74304044847744        1.27267186490771        1.05950304401859
H            4.01052431135989        1.11311082081300       -0.68538001097748
H            2.70428035117087        2.14036793448212       -0.07178628294720
H            3.56949993714964       -1.64113991690932        0.04965021517222
H           -1.70707048907843        3.12205221610884       -0.02722902544886
H           -2.85686449809681        2.11483540608443       -0.95289091021992
H           -2.90837013921798        2.09802347479949        0.81173085382883
H           -1.03155665236773       -3.11875246379621        0.83641479451218
H           -1.00622410282707       -3.10241140156808       -0.94973408140143
H           -2.47799193554426       -2.58311888468869       -0.07270015747856
H            1.13582520173054       -3.32994202120103       -0.02303914358497
25
 energy: 32.327242897453 xtb: 6.6.1 (8d0f1dd)
C            3.24360979046316        1.20365143310105        0.08723852415389
N            2.31072470789077        0.09888207234778        0.03307603275683
C            2.56761562704764       -1.29392918087563        0.03695622950856
N            1.35974681903094       -2.08670731071227        0.00064953698796
C            0.41945002119236       -1.07920685259978       -0.00982903233369
C            0.92688963639347        0.22138937148221        0.01191415034913
C            0.11236467772740        1.40487098518405       -0.00354364896420
O            0.46791835098814        2.58314759848646        0.00288511363346
N           -1.27785625017988        1.09116655226332       -0.03281307785714
C           -2.24640914545725        2.17825074086457       -0.05131576735780
C           -1.81203821516890       -0.16322273051489       -0.04981667607814
O           -3.00851282640669       -0.37151433049237       -0.07516064771362
N           -0.92572370023628       -1.24426368582879       -0.03792350322984
C           -1.39455417625800       -2.60196015228210       -0.05726345563420
H            3.74435083525387        1.27446750615572        1.05943080493169
H            4.01117495879134        1.11563096325723       -0.68543381378881
H            2.70672131042291        2.14488588216726       -0.07162898289061
H            3.57309113769755       -1.62677591706051        0.04866184041259
H           -1.70940389020169        3.12393283238996       -0.02732973025656
H           -2.85742504729004        2.11534309869574       -0.95296642499578
H           -2.90866635377687        2.09852372214194        0.81188381907153
H           -1.03259199754935       -3.11515044292908        0.83656493989564
H           -1.00716791554139       -3.09898838367221       -0.94971719460488
H           -2.47797440543726       -2.58302436797823       -0.07270206939634
H            1.12688035557648       -3.40037061484741       -0.02478305440507
25
 energy: 39.054219410829 xtb: 6.6.1 (8d0f1dd)
C            3.24589608024105        1.21107423336222        0.08677293967214
N            2.31288055416543        0.10807719476027        0.03287045180408
C            2.56756492964523       -1.28382811112894        0.04319342560960
N            1.36147176259445       -2.08006886596061        0.00464575873082
C            0.42294241600929       -1.07864193664304       -0.00941475037278
C            0.92767850096404        0.22478882857595        0.01211527385724
C            0.11312325193178        1.40980746517334       -0.00314898023258
O            0.46340733369079        2.58601707783332        0.00294363505426
N           -1.27823726705117        1.09645186732429       -0.03303745259171
C           -2.24800135556156        2.18031689892449       -0.05144289971517
C           -1.81138272994888       -0.16203457363120       -0.04985095430696
O           -3.00662103351666       -0.37166008646773       -0.07524050263370
N           -0.92408187263496       -1.23678981704128       -0.03818863956029
C           -1.39225194420005       -2.59786718209970       -0.05721764901644
H            3.74616315356199        1.27927701422247        1.05889346748113
H            4.01248898787882        1.12099756013135       -0.68604784813131
H            2.71016343156831        2.15285363787206       -0.07193953263826
H            3.57646772664457       -1.60784758398588        0.04668279976412
H           -1.71360911087343        3.12723280391250       -0.02743392565003
H           -2.85897857429273        2.11604506647816       -0.95312745445530
H           -2.91008819240323        2.09920222629457        0.81190964205817
H           -1.02910741448981       -3.10883041814116        0.83636341381418
H           -1.00319989157142       -3.09312676632321       -0.94907296495882
H           -2.47513784060113       -2.58262185321444       -0.07290119956825
H            1.10266340322173       -3.51979589148382       -0.03129214181957
25
 energy: 33.535919880188 xtb: 6.6.1 (8d0f1dd)
C            3.25194327567460        1.22814438932192        0.08634085915274
N            2.31792633655352        0.13169219070701        0.03203562790499
C            2.56060097948972       -1.25082222038480        0.05211671892765
N            1.36853985097075       -2.05019336369128        0.01363716200434
C            0.43434911661310       -1.07099922064302       -0.00928490754421
C            0.93157089389242        0.23856038047446        0.01160660871056
C            0.11570396356983        1.42531621431911       -0.00243971810885
O            0.45007860091755        2.59167477966296        0.00303307529813
N           -1.27728784630725        1.11157147839967       -0.03354179351130
C           -2.25074873464601        2.18536374505120       -0.05171639646873
C           -1.80750016169046       -0.16146006907141       -0.04983429154834
O           -2.99896051161600       -0.37349650827255       -0.07537918951437
N           -0.91761554939537       -1.21681668778370       -0.03855843208703
C           -1.38535091569386       -2.58860871849648       -0.05678805522045
H            3.74924059072061        1.28665129222415        1.05810347866133
H            4.01402572617819        1.13145810018947       -0.68726082567246
H            2.71595380940237        2.16922852815741       -0.07144139088334
H            3.57756318185467       -1.56170438358284        0.04433209140596
H           -1.72180195230792        3.13411572791833       -0.02773372941021
H           -2.86139874864159        2.11681632521585       -0.95347508034824
H           -2.91225654656936        2.10004970383535        0.81198154081022
H           -1.01843706657468       -3.09548420171187        0.83400889468312
H           -0.99213946415497       -3.08055912044829       -0.94551092695818
H           -2.46669148760396       -2.58509204150519       -0.07278960693576
H            1.03490696433654       -3.82637753114146       -0.04440780115298
25
 energy: 28.293022194336 xtb: 6.6.1 (8d0f1dd)
C            3.25439828984032        1.24165802150943        0.08721274303428
N            2.31567055479436        0.14910169821154        0.03369239782638
C            2.54459762286557       -1.21512274779567        0.05059531939306
N            1.38562575049136       -2.01257701404694        0.01591849622608
C            0.44580287117332       -1.05603078283633       -0.00819020502395
C            0.93524970050196        0.25782276246318        0.01064989773505
C            0.11382350913939        1.44613049100728       -0.00363738312218
O            0.43893635927889        2.60291458139184        0.00400213707880
N           -1.27223119281131        1.12544749821062       -0.03420834623343
C           -2.25243122573607        2.18958012776837       -0.05200270922059
C           -1.80046071860011       -0.16304563174843       -0.04964782715581
O           -2.98958183905631       -0.37136619473315       -0.07510845056067
N           -0.90728588672096       -1.20202832562591       -0.03735727794730
C           -1.37798026463891       -2.58102832236126       -0.05608018141966
H            3.75067465487405        1.29310201400898        1.05779806916179
H            4.01359808304552        1.13862356681765       -0.68683847743421
H            2.72256083247401        2.18478001237864       -0.07070909190172
H            3.56774585975931       -1.52314947344988        0.04494739688303
H           -1.73051609814627        3.14162085525973       -0.02823695573747
H           -2.86303505391967        2.11630836303716       -0.95347906978398
H           -2.91359110700615        2.09963326134268        0.81161428313694
H           -1.00640253520770       -3.08647344475303        0.83073241113216
H           -0.98031667413401       -3.07153795541734       -0.94080489214755
H           -2.45885163587748       -2.58443859977193       -0.07234203759829
H            0.97621444858934       -4.13089597212320       -0.05148633412625
25
 energy: 20.525325437750 xtb: 6.6.1 (8d0f1dd)
C            3.25427226452463        1.24878909409722        0.08743267218206
N            2.30592166833846        0.15994115509771        0.03903605526989
C            2.52960806625902       -1.16482141190188        0.03775282682915
N            1.43329477340721       -1.91654005374755        0.01197155897509
C            0.45066373725845       -1.00748502838603       -0.00656222418152
C            0.93763443422419        0.29904519820496        0.01113129961404
C            0.10037557172558        1.47241859997605       -0.00501181159319
O            0.43876006341433        2.63048201606261        0.00451096989164
N           -1.26303037856986        1.12552155948739       -0.03381051205914
C           -2.25201702686662        2.18656720673542       -0.05180389590501
C           -1.79351940586351       -0.17163286958406       -0.04927922964079
O           -2.98573189869211       -0.36132644767428       -0.07426270882929
N           -0.89513533224572       -1.20547547927978       -0.03536470967476
C           -1.37234611900888       -2.58372552564032       -0.05599175286037
H            3.74778604521004        1.29501132759743        1.05909940183320
H            4.01416172806037        1.13409617115074       -0.68528549766960
H            2.72661838623313        2.19230566682586       -0.07310702733417
H            3.54254400770187       -1.52517118871496        0.05071162601918
H           -1.73139067011751        3.14029544050436       -0.02802547101127
H           -2.86214050020548        2.11293671431285       -0.95312055236046
H           -2.91283795637690        2.09590908726958        0.81138752490339
H           -1.00420603445081       -3.09676100519654        0.82909775429478
H           -0.97905634616894       -3.08043075524029       -0.93989542104222
H           -2.45607086299634       -2.57557002275897       -0.07195776020977
H            0.93805609017785       -4.41535066045347       -0.05161920324632
25
 energy: 19.906451205090 xtb: 6.6.1 (8d0f1dd)
C            3.26038223784801        1.27244645699221        0.08625121747066
N            2.30755955524673        0.18918736093469        0.04042736280796
C            2.53771123916824       -1.12817451329402        0.03611918161532
N            1.46376466643243       -1.86407219313355        0.00855819944980
C            0.44956190619502       -0.97327251884839       -0.00602135318791
C            0.93790579029611        0.32991673306693        0.01346433733295
C            0.08839853574364        1.48702457715312       -0.00284432962292
O            0.43577326885434        2.65125655946417        0.00363113133665
N           -1.26004779354985        1.12325614163998       -0.03239493620706
C           -2.25317417052718        2.18447554912961       -0.05146512580758
C           -1.78802347355396       -0.17408326221522       -0.04851282559638
O           -2.98372496863280       -0.35267856925828       -0.07381154942543
N           -0.89162160880958       -1.21132678647784       -0.03520827162580
C           -1.37076255131995       -2.58409209901221       -0.05681670144344
H            3.74978593191100        1.30875750351751        1.06134783010562
H            4.02084447472384        1.13981491609985       -0.68382802337093
H            2.73683019986370        2.21510158930838       -0.07812321115799
H            3.54030930316419       -1.52122853233488        0.05292999959741
H           -1.73051161436289        3.13808352312512       -0.02731302905828
H           -2.86148352055585        2.11018334829471       -0.95342086070561
H           -2.91266208305882        2.09277764568574        0.81198901753684
H           -1.01218693415266       -3.10565433521019        0.82908652332326
H           -0.98727073312007       -3.08787598381491       -0.94275785583806
H           -2.45628678150239       -2.56152836255581       -0.07226095286899
H            0.89114342867116       -4.68926595951271       -0.05199186246550
25
 energy: 19.727010059111 xtb: 6.6.1 (8d0f1dd)
C            3.26440842636594        1.28743294456882        0.08769172959667
N            2.30964084506803        0.21145847896484        0.04069346192798
C            2.54904721879978       -1.11174257080768        0.03494220111469
N            1.46587991175078       -1.85245193438389        0.00695609466735
C            0.44761835508499       -0.96026504817436       -0.00594551085431
C            0.93770809475423        0.34128658267595        0.01499214566625
C            0.08410898644566        1.49246334860078       -0.00325763437054
O            0.43516128081898        2.65875700474572        0.00150654874396
N           -1.26059212220901        1.12356011414774       -0.03229315170999
C           -2.25510170974633        2.18497035485289       -0.05147649941609
C           -1.78472065369695       -0.17079124014770       -0.04836936890000
O           -2.98172308590018       -0.35002492405295       -0.07315126841534
N           -0.88948113088860       -1.21380693951881       -0.03553863945511
C           -1.36785559999465       -2.58253824598953       -0.05664285495723
H            3.75240800847925        1.31688590898921        1.06415437371274
H            4.02382646157636        1.14423593076458       -0.68175655443882
H            2.74287571232891        2.22904275916780       -0.07808741524893
H            3.54426674882557       -1.51500667145724        0.04861598358673
H           -1.73028826723265        3.13755095913601       -0.02761553131064
H           -2.86225964164374        2.10973742007445       -0.95365354894274
H           -2.91354084908754        2.09264268611148        0.81224021661977
H           -1.01338410798250       -3.10866799662016        0.82933298988422
H           -0.98873216584726       -3.09096157229112       -0.94287400742408
H           -2.45510454608367       -2.55687935334793       -0.07192937791239
H            0.85804813498709       -4.82785920726492       -0.05150046996958
25
 energy: 19.684356052982 xtb: 6.6.1 (8d0f1dd)
C            3.26428423355606        1.28662086419709        0.08705418531304
N            2.30765674091193        0.21417280668837        0.04080421132436
C            2.55043818487776       -1.10905833160480        0.03499954087408
N            1.46464782809943       -1.84773711296222        0.00629184359143
C            0.44692148457297       -0.95653401838080       -0.00567125424450
C            0.93739302739402        0.34332098184069        0.01621862117675
C            0.08294939202797        1.49413275195513       -0.00255903001194
O            0.43551255314160        2.65981892778988        0.00187355444161
N           -1.26116963607045        1.12353792696408       -0.03186078760920
C           -2.25609697403698        2.18516727491051       -0.05138636072850
C           -1.78396190389781       -0.16889931911749       -0.04834954975246
O           -2.98076640058396       -0.35117800744906       -0.07349470430445
N           -0.88760740906329       -1.21508538239479       -0.03575231032092
C           -1.36597085615258       -2.58182056496676       -0.05692344780182
H            3.75250106907446        1.31600242863217        1.06321475752859
H            4.02337600078601        1.14233235932612       -0.68234772050174
H            2.74378837984620        2.22849787025948       -0.07886670851036
H            3.54159022263227       -1.51874918873336        0.05010132402958
H           -1.73066856633828        3.13735398342210       -0.02733069969947
H           -2.86270625696693        2.10971678593897       -0.95371889599710
H           -2.91441569974399        2.09244420513687        0.81215314078695
H           -1.01174131128123       -3.10884282077409        0.82885291034277
H           -0.98695772820308       -3.09103840144858       -0.94300424573363
H           -2.45377848827911       -2.55642718039203       -0.07225105624379
H            0.85699641866945       -4.83872005009353       -0.05101340575474
25
 energy: 19.670722861496 xtb: 6.6.1 (8d0f1dd)
C            3.26380582488056        1.28617917195412        0.08757963098386
N            2.30612479334504        0.21529311201830        0.04081464931599
C            2.55174819825479       -1.10812324938552        0.03417877948851
N            1.46322234175614       -1.84639166654853        0.00557652985554
C            0.44645324960780       -0.95576310674186       -0.00574996941388
C            0.93737119838048        0.34344909713406        0.01653452130919
C            0.08280457982052        1.49438506414628       -0.00310516208959
O            0.43550528857689        2.65979320863687        0.00122453154869
N           -1.26149498336629        1.12268881614342       -0.03202871388345
C           -2.25606858663160        2.18511770055341       -0.05147265403580
C           -1.78367900672906       -0.16738409216368       -0.04842187672172
O           -2.98019972862944       -0.35268715632754       -0.07328307287549
N           -0.88672792759491       -1.21663452062662       -0.03598229915718
C           -1.36644489069359       -2.58140811853097       -0.05668887375016
H            3.75227378654872        1.31618504875875        1.06360782972343
H            4.02325640689247        1.14289722003310       -0.68155477932356
H            2.74454240122031        2.22904963538340       -0.07806060377243
H            3.54050395380618       -1.52124647879879        0.04897514837727
H           -1.72997714715402        3.13693225733721       -0.02759609471338
H           -2.86266786615682        2.10976251235010       -0.95369561023193
H           -2.91401874093873        2.09260710156906        0.81222612067643
H           -1.01305912186307       -3.10919963918081        0.82908398535491
H           -0.98853436918861       -3.09171570075150       -0.94269875080943
H           -2.45432622490997       -2.55534379795928       -0.07187977704151
H            0.86180087573865       -4.83941363025898       -0.05054957661973
25
 energy: 19.667169146234 xtb: 6.6.1 (8d0f1dd)
C            3.26381656779702        1.28549986626831        0.08712035572776
N            2.30561262088405        0.21502196472508        0.04085974019245
C            2.55147810584346       -1.10843360477876        0.03464614399164
N            1.46202231083456       -1.84622920475551        0.00561109731032
C            0.44592404716266       -0.95562418389031       -0.00559654665464
C            0.93732707645969        0.34361329862675        0.01692435346033
C            0.08298576972851        1.49461689794576       -0.00259072570200
O            0.43521292252915        2.66007975892793        0.00171147245679
N           -1.26173279538246        1.12255973490515       -0.03178785130553
C           -2.25626238375062        2.18527147682424       -0.05139482288571
C           -1.78406737036555       -0.16631774709079       -0.04837863221122
O           -2.98043635826968       -0.35279091394274       -0.07345831534158
N           -0.88702672597118       -1.21667140843300       -0.03607315078253
C           -1.36642620893734       -2.58131921852223       -0.05696820723190
H            3.75240423398381        1.31586181679399        1.06315754271572
H            4.02318207739645        1.14186976669366       -0.68212749610999
H            2.74492403167206        2.22873223785580       -0.07886836384153
H            3.53980791170403       -1.52232746661661        0.04957852635939
H           -1.73029311424966        3.13716459842667       -0.02733949563613
H           -2.86268671882047        2.10994026981445       -0.95373711551642
H           -2.91439972796674        2.09268323048564        0.81215969041282
H           -1.01288066722400       -3.10931720221766        0.82875959300939
H           -0.98814325836714       -3.09160476737960       -0.94301510186641
H           -2.45432679570310       -2.55583872100157       -0.07226960158837
H            0.86619875398490       -4.83741169092066       -0.04988917676812
25
 energy: 19.660359404714 xtb: 6.6.1 (8d0f1dd)
C            3.26365317749426        1.28516929570639        0.08769583717293
N            2.30553791645071        0.21417977564301        0.04080739968109
C            2.55053802243678       -1.10936832427912        0.03412442065638
N            1.46034687732426       -1.84641132520690        0.00502444536518
C            0.44520867380447       -0.95559548163024       -0.00586968112570
C            0.93737050581893        0.34384630097819        0.01653268281458
C            0.08357031828332        1.49462699474573       -0.00313643965392
O            0.43480186473092        2.66033003055186        0.00113724113368
N           -1.26180373910733        1.12230086947589       -0.03209791166934
C           -2.25610310453706        2.18534016334361       -0.05149912398733
C           -1.78468400797350       -0.16538695269300       -0.04843859228727
O           -2.98088805383869       -0.35290696374088       -0.07319824391988
N           -0.88779106819655       -1.21625669270977       -0.03616826676572
C           -1.36674838814868       -2.58112318654543       -0.05663744096226
H            3.75201696111148        1.31543583410454        1.06391379849465
H            4.02313981525902        1.14220713746867       -0.68158104280392
H            2.74443946306421        2.22843196019816       -0.07797805437765
H            3.53921952505359       -1.52296662018595        0.04864084258536
H           -1.73004883856249        3.13717356950233       -0.02762666949513
H           -2.86274772536226        2.10995104144557       -0.95371911359231
H           -2.91403815819759        2.09280971056425        0.81225755644880
H           -1.01294749602447       -3.10891225501508        0.82921423547290
H           -0.98853326178796       -3.09156024234920       -0.94267526978727
H           -2.45450195324843       -2.55566485762239       -0.07177466363684
H            0.87320697912549       -4.83662099300619       -0.04991403356639
25
 energy: 19.660288543117 xtb: 6.6.1 (8d0f1dd)
C            3.26387538938348        1.28536048661254        0.08701596699675
N            2.30598570014843        0.21396398956540        0.04091926959263
C            2.55002634560515       -1.10969624393363        0.03475690602608
N            1.45994253606316       -1.84638098688885        0.00565833270184
C            0.44508585021650       -0.95524299274470       -0.00556699616028
C            0.93738470764899        0.34411901923823        0.01689226571123
C            0.08355910208129        1.49469415521221       -0.00242437905590
O            0.43462975131333        2.66048327538940        0.00187728370175
N           -1.26181636310384        1.12250361056694       -0.03177505307753
C           -2.25618116064815        2.18539043000901       -0.05137452238792
C           -1.78477216865062       -0.16570697556947       -0.04836906734974
O           -2.98101706809009       -0.35271236555666       -0.07349283616452
N           -0.88796761753581       -1.21585465824752       -0.03608757182316
C           -1.36667849206073       -2.58113803459767       -0.05706594380755
H            3.75244772166452        1.31594203553290        1.06304371179316
H            4.02319581707950        1.14190189551509       -0.68230299504507
H            2.74454066132560        2.22835630015658       -0.07903802877235
H            3.53924035077268       -1.52244708286055        0.04951141834695
H           -1.73026922627192        3.13728264223696       -0.02728311223430
H           -2.86259823107139        2.11002035984549       -0.95375002692701
H           -2.91439375129429        2.09275657090274        0.81216309409839
H           -1.01305575675828       -3.10903042580325        0.82865480644017
H           -0.98820263383470       -3.09121630577488       -0.94312616394651
H           -2.45446487759330       -2.55580822179876       -0.07242774906845
H            0.87371771858293       -4.83851168826352       -0.04937469739405
