  72
        -99.36643700
 N         -1.7009495520        2.6412979914        2.5896654099
 C         -1.7682710674        1.9140921047        1.5763008389
 C         -2.9099583028        1.9204635312        0.5974611615
 C         -3.4687125071        0.5122682954        0.4722083039
 C         -4.3325146246        0.1895026846       -0.5763372324
 C         -4.8906179617       -1.0729746376       -0.6911763546
 O         -5.7352054366       -1.4669412467       -1.6683298406
 C         -6.1879097995       -0.5241621300       -2.6107036231
 C         -4.5790185479       -2.0671569198        0.2746973108
 O         -5.1658070239       -3.2667262603        0.0848032229
 C         -4.9853938073       -4.2760563040        1.0509239947
 C         -3.7268953823       -1.7379747018        1.3165694516
 C         -3.1836393998       -0.4641576057        1.4140366820
 C         -2.2998063948        2.3956444580       -0.7483769686
 C         -1.4290071984        1.3497629665       -1.4619730610
 C         -0.1332543996        1.1066001923       -0.7917442174
 N          0.4704589223       -0.0720521746       -0.7233352614
 C          1.7734690404       -0.1662629831       -0.0891907482
 C          2.8649470430        0.4517183032       -0.9234195786
 C          4.1841404947        0.1692749707       -0.8439637046
 C          5.1491069202        0.9424592953       -1.7046544461
 C          6.5847624711        0.7967054773       -1.3325272003
 C          7.0227161283       -0.1297623614       -0.4605956281
 O          8.2990414328       -0.3525960732       -0.0882651868
 C          9.3164493355        0.4259984478       -0.6717093369
 C          6.0616381258       -1.0185144798        0.1939257648
 O          6.6375899083       -1.9549990070        0.9571090541
 C          5.8350198655       -2.8971820482        1.6282836928
 C          4.7232359552       -0.8376248169        0.0181333430
 C         -0.1239033017       -1.2622872325       -1.2817790019
 C         -4.0793846680        2.8651117992        1.0046486155
 C         -4.6995238379        2.4437892311        2.3347136678
 C         -3.6762454898        4.3359691538        1.0693373106
 H         -4.5854668219        0.9429773615       -1.3040473612
 H         -6.7030340728        0.3112963944       -2.1272567201
 H         -6.8904842655       -1.0609713768       -3.2451066382
 H         -5.3666872729       -0.1421966083       -3.2263526656
 H         -5.3383847004       -3.9556373072        2.0357015116
 H         -5.5844688628       -5.1177956212        0.7093070015
 H         -3.9367866134       -4.5830888455        1.1207663478
 H         -3.4890534246       -2.4649781103        2.0760149242
 H         -2.5535358784       -0.2362821132        2.2598565153
 H         -3.1126809556        2.6734330891       -1.4189062917
 H         -1.7057002002        3.2912111123       -0.5635205351
 H         -1.9931077306        0.4244953014       -1.5748488869
 H         -1.2229411647        1.7378711644       -2.4687620791
 H         -0.9642273037        1.2224319802        1.2593990940
 H          0.4232845040        1.9576832550       -0.4291760660
 H          1.9826365088       -1.2181081996        0.1088850474
 H          1.7253292795        0.3497431604        0.8812528978
 H          2.5349068645        1.2278498753       -1.5984099269
 H          5.0457209394        0.6212192361       -2.7504454974
 H          4.8844714864        2.0034513059       -1.6921429486
 H          7.2658855451        1.4617500452       -1.8387980174
 H          9.2050275207        1.4840705060       -0.4165171263
 H          9.3304799174        0.3145275664       -1.7599580727
 H         10.2489078006        0.0496917278       -0.2567642932
 H          6.5281756544       -3.5706036320        2.1292178611
 H          5.1937603282       -2.4169558314        2.3738885539
 H          5.2187512500       -3.4675502088        0.9259290869
 H          4.0322667485       -1.4640979905        0.5582680724
 H         -0.3895959857       -1.1085034373       -2.3287217556
 H         -1.0258197963       -1.5401402163       -0.7280988956
 H          0.5845454366       -2.0844973102       -1.2287384546
 H         -4.8453431940        2.7551650141        0.2277825386
 H         -3.9834486512        2.5784874276        3.1392046822
 H         -5.0146016739        1.4033773935        2.3103719757
 H         -5.5707897797        3.0594853635        2.5416715810
 H         -2.8666031687        4.4722875683        1.7790926628
 H         -3.3734750730        4.7186209909        0.0984387077
 H         -4.5269783882        4.9224631723        1.4061606344
 H         -0.8657546212        2.5802865240        3.1637612897
