25
 energy: -42.152435571416 gnorm: 0.003540941311 xtb: 6.6.1 (8d0f1dd)
C            3.41993224993952        0.92586156773105        0.04846522480112
N            2.49289026140472       -0.17129519182007       -0.00153206907329
C            2.78133512901543       -1.46225558548641       -0.15663925762038
N            1.64036237227925       -2.19291373300304       -0.13403551378627
C            0.59067825593875       -1.33275672769947        0.04241010154722
C            1.13316472652432       -0.05461880399272        0.12686645652585
C            0.25393976516356        1.11625538160240        0.27662767462061
O            0.67655376769058        2.25781382939468        0.31091364270339
N           -1.04286310051058        0.77006236009461        0.35202082204846
C           -3.59110061078849        3.67178498677178       -0.32379229139541
C           -1.60518203493394       -0.42872097709016        0.29812604259902
O           -2.78687052351323       -0.65254281118451        0.37101720639624
N           -0.71877345523473       -1.58446150211801        0.11986237150997
C           -1.28667096456508       -2.90471612614982        0.01320711043331
H            3.96311089856242        0.92195247300730        0.99584337633057
H            4.13711657132639        0.85557523025857       -0.76848871240102
H            2.85743670046582        1.85805528688944       -0.02647616106448
H            3.76429800687819       -1.86859650915821       -0.28462457816075
H           -2.76474285252432        4.35399804290042       -0.32072434497398
H           -3.96017788753929        3.27548245148516       -1.24984547630382
H           -4.03059695298800        3.35597925634840        0.60254676837569
H           -0.98767551166512       -3.52674322889957        0.85985628731776
H           -0.98831627362793       -3.37920697067307       -0.92245426881331
H           -2.37148394484356       -2.78870691811010        0.02887428798414
H            1.58406692164534       -3.19704723949866       -0.22685308170062
