72
 energy: -5.855396560442 xtb: 6.6.1 (8d0f1dd)
N           -1.49000109607091        2.81817260218206        2.23411067066239
C           -1.55655211908112        2.15567453712747        1.16731928487354
C           -2.74872227311485        2.06251021068906        0.25695140047373
C           -3.31715726738077        0.64973474814133        0.34736591352038
C           -4.30477234223967        0.25027796517935       -0.55615090892265
C           -4.84325901542097       -1.02070780584509       -0.52483494943428
O           -5.80858466500880       -1.48432362229134       -1.36649453608788
C           -6.38847560516851       -0.59634972960924       -2.28694475390802
C           -4.38770645516147       -1.94906926235235        0.43749881996022
O           -4.97535852163245       -3.17695893305827        0.38878984294418
C           -4.64246977108408       -4.11819101439588        1.37580686059848
C           -3.41656149061474       -1.55365851192845        1.33663138300804
C           -2.88911564627636       -0.26647139501127        1.29251875544642
C           -2.19813906973189        2.29548041414656       -1.20447125183681
C           -1.27233269967873        1.16760011391217       -1.67385450428695
C           -0.00199795842132        1.12852638544201       -0.90616071314178
N            0.62736507190452       -0.04963279619858       -0.56215103488315
C            1.99655281897614       -0.03780636690378       -0.15992105335186
C            2.93146780597365       -0.54525413161245       -1.27986344907580
C            4.35535998458223       -0.43638930203929       -0.83923494532694
C            5.07022454061515        0.72939812563393       -1.04108858938864
C            6.38055153269420        0.84240800622527       -0.59991879813708
C            6.99166733954699       -0.20838161084976        0.06048418058681
O            8.27033512093029       -0.20999976056656        0.53273873294584
C            9.06274677992254        0.93010948504897        0.32406643118945
C            6.26516091932963       -1.40044570236633        0.28282538073245
O            6.94876156837624       -2.38239669566928        0.93516690610643
C            6.31266562716227       -3.61408215057123        1.15642135855416
C            4.96091945146129       -1.49517654549748       -0.16227116796466
C           -0.05702540159829       -1.30789584893704       -0.62630271537092
C           -3.87558109553311        3.07274601066897        0.59584131457530
C           -4.48605214982650        2.81237681115778        1.96972752356957
C           -3.39620467208231        4.51795858263073        0.52162951196157
H           -4.66161843252763        0.95437735354024       -1.28922453162081
H           -6.84827821082190        0.26291462840611       -1.78760327534059
H           -7.16162844363606       -1.17005079185811       -2.79542302093163
H           -5.66045486818209       -0.24275684461014       -3.02509278129224
H           -4.86524153842995       -3.74606821442079        2.38100470275882
H           -5.26464281737095       -4.98696662340228        1.16730896143584
H           -3.58737520769223       -4.40777543440960        1.32228987351385
H           -3.06099846603857       -2.23617827033718        2.09237524768309
H           -2.14785199113278        0.00799082739681        2.02782829547260
H           -3.01542620188807        2.38116704921481       -1.92304926349821
H           -1.63766451996000        3.23287665597036       -1.24044965962561
H           -1.82351683233037        0.23232797173761       -1.59221793482695
H           -1.03680086457700        1.33701732372691       -2.73393003195019
H           -0.69939532539752        1.62270018150876        0.69514760903110
H            0.64326957605955        1.98887186582912       -0.96205952487947
H            2.11357097011619       -0.67075706351349        0.72737662940801
H            2.29441674091571        0.98031864618786        0.10748999420357
H            2.76129528442193        0.06397087561514       -2.16940238165358
H            2.67627433710671       -1.57967266862082       -1.51295118138910
H            4.61510834367495        1.56022326872972       -1.55986116938814
H            6.91740157423891        1.75884508545943       -0.78588123417434
H            8.64357448979582        1.81222838865527        0.82003592583752
H            9.19587732962125        1.14231925045564       -0.74248618307505
H           10.02930682521964        0.69498536952484        0.76684122766496
H            7.05216899242530       -4.23592731473653        1.65874436503418
H            5.43387338664741       -3.50724485144169        1.80192673562348
H            6.01742493807496       -4.09335825697191        0.21652241334384
H            4.39654403568063       -2.40139631859106       -0.00418343211864
H           -0.22723606479463       -1.62629895112444       -1.66073394157718
H           -1.02429080594240       -1.24536077491419       -0.11874934268384
H            0.55099261906331       -2.05880466313521       -0.12680863910113
H           -4.66672020005404        2.93847934388652       -0.15036695907238
H           -3.73783615770990        2.95818997551048        2.74112313189760
H           -4.87003560637393        1.79929286217856        2.03910604393572
H           -5.30942010544160        3.50297257743506        2.13861327917276
H           -2.59598785217758        4.68422770723252        1.23657263705458
H           -3.04430965031674        4.77060271486029       -0.47386779641816
H           -4.22362695640402        5.17961801959242        0.76390660191786
H           -0.59141345449284        2.81136418941780        2.71540309680840
