72
 energy: 56.526437369279 xtb: 6.6.1 (8d0f1dd)
N           -1.26949680087674        3.38811493974730        1.94878862507550
C           -1.69930139497348        2.20464632407948        1.64394790840543
C           -2.95143495155144        1.95447236569754        1.04586030188217
C           -3.37237448360639        0.59906317826700        0.81291417266545
C           -4.32799109673270        0.28454521150778       -0.18491288201107
C           -4.74002420148932       -1.00762274357207       -0.41968465403531
O           -5.62560088307179       -1.37795455279435       -1.39403857865482
C           -6.26261041131980       -0.37476447037656       -2.14270941799536
C           -4.21258786173278       -2.06925629170691        0.34932806299935
O           -4.68205911834936       -3.31242348932559        0.03459336137506
C           -4.28539094039110       -4.39913635692343        0.82656143591738
C           -3.29743447052569       -1.77391980380445        1.34407804439234
C           -2.87954314089145       -0.47437279051043        1.56558413989657
C           -1.92590337447356        2.34816591628152       -2.10370282476894
C           -1.38656292764972        1.02373213087865       -1.78444294460126
C           -0.04068368402717        0.97506008282874       -1.22536418671251
N            0.49288647413991       -0.09044130170010       -0.63253280216626
C            1.86302454111514       -0.06705836942134       -0.19035625458522
C            2.83523741541418       -0.58584065587782       -1.26829346073354
C            4.25863943101296       -0.45546294724743       -0.79893651391719
C            4.96707769808560        0.71297888852226       -1.00598001849792
C            6.27638615094499        0.84353713967643       -0.55896982399920
C            6.89966438215410       -0.19816141699733        0.10419002499734
O            8.17407556966793       -0.18602789318460        0.57909747867834
C            8.95684565896398        0.96774625659241        0.39062524142856
C            6.18319209649066       -1.39923625383751        0.32200703235153
O            6.87435252306666       -2.36981142882123        0.97923351370178
C            6.25319912591908       -3.60855273307477        1.20848050197434
C            4.87838091030852       -1.50831753340451       -0.12684372729671
C           -0.17631640375859       -1.35771856019603       -0.72358047049822
C           -3.96951345188776        3.05764289632943        0.94602076647760
C           -4.31974693716579        3.51751880670231        2.35311808268418
C           -3.46942026532397        4.22988149427239        0.10529441396371
H           -4.72301658113169        1.08542636397052       -0.79085554330119
H           -6.82896012202844        0.31193473318459       -1.50469903524440
H           -6.94888846873505       -0.89476498379231       -2.80939433604241
H           -5.54410447008065        0.19329711113795       -2.74249241774655
H           -4.57213259539132       -4.27016736872277        1.87451439170722
H           -4.80706690098270       -5.26222988443272        0.41607324431056
H           -3.20497700374841       -4.56893883634080        0.76860207019537
H           -2.90731011071021       -2.55411690271445        1.97426147631994
H           -2.20238977078623       -0.28214512106447        2.38006238908901
H           -2.77579535547874        2.40144458070634       -2.74687018174036
H           -1.28135283172660        3.19966764384290       -2.05744278939433
H           -2.10653876878622        0.50327315333235       -1.13676188134274
H           -1.34397926301089        0.44185223808215       -2.70833307661767
H           -1.06705256514504        1.30028442478133        1.75137553620259
H            0.49959720936927        1.90208378499972       -1.13082732611932
H            1.95109237260576       -0.68967984006697        0.70387266255628
H            2.14677741501071        0.95256805223512        0.07625889784065
H            2.69046608712754        0.00018359025421       -2.17868581693907
H            2.60403869464315       -1.62957750911752       -1.49330276627478
H            4.50815300901087        1.53812020741567       -1.53006442295493
H            6.80198482580269        1.76860238470458       -0.73762162830528
H            8.51400695722115        1.84054686598614        0.87944681020832
H            9.11011545215216        1.18337074414657       -0.67266968835523
H            9.91862659800721        0.74962152536213        0.85306307751965
H            6.99678641523983       -4.21822918874601        1.71931046885800
H            5.37028564776805       -3.50611036887629        1.84876946529073
H            5.96798280342469       -4.09888077186032        0.27200165262454
H            4.32763819886042       -2.42381469068780        0.02763857203424
H           -0.33477785220008       -1.64708646252819       -1.76754920427873
H           -1.15501240764650       -1.28926892417203       -0.23994144903065
H            0.41322947390333       -2.12384370258071       -0.22446765728383
H           -4.89540428656608        2.66418938309760        0.50950056317340
H           -3.43194839385947        3.90688371028778        2.83508257227042
H           -4.71654481235507        2.70893011218849        2.96327448354187
H           -5.07303640503859        4.29499741877104        2.28779181907450
H           -2.57902955992785        4.63516283879577        0.58680926557990
H           -3.21537446400719        3.86408618319245       -0.88815850519297
H           -4.21742101787161        5.01912094623772        0.02058182992141
H           -0.37765395355495        3.38849206865444        2.43812077809324
