72
 energy: 54.907579669347 xtb: 6.6.1 (8d0f1dd)
N           -1.29075897846074        3.38004423171716        1.97219719792760
C           -1.73725176225239        2.18507994975345        1.77429847930873
C           -3.00295776048310        1.92590154279927        1.21833879134831
C           -3.39922122548824        0.57868076875443        0.92512727880982
C           -4.33563706483647        0.28709279857017       -0.09751029278238
C           -4.71280731977672       -1.00407187231800       -0.39567712000061
O           -5.58141739813282       -1.34960810075453       -1.39321494210896
C           -6.23213029448159       -0.32775663272687       -2.10198275226628
C           -4.17504613018285       -2.09167089107818        0.33061454621343
O           -4.61158376798754       -3.33472910841256       -0.04867132691509
C           -4.20133743985318       -4.45208163570305        0.69268449356060
C           -3.27114817582341       -1.82176769583384        1.34641870591935
C           -2.88497447030488       -0.52308354730338        1.62926722094155
C           -1.85590833290379        2.35628778858528       -2.30121055723969
C           -1.37328516855770        1.05416161742820       -1.84191927984897
C           -0.04828153292120        1.00997535773719       -1.23016522724462
N            0.48500013446052       -0.07754862879306       -0.65887769831634
C            1.84521799797909       -0.06150037567009       -0.19003942099223
C            2.82310791937594       -0.58284365205911       -1.26421156529665
C            4.24335498143180       -0.45525851855089       -0.79427389909605
C            4.94709714880264        0.71515614257862       -0.99991664248437
C            6.25557986764375        0.84590002635885       -0.55559581161692
C            6.87819430663964       -0.19577091778730        0.10813893290045
O            8.15124971552145       -0.18203084365703        0.58523719536096
C            8.93042978004687        0.97325899402448        0.40274821041314
C            6.16593512213585       -1.39822741620871        0.32664554644727
O            6.86195873960236       -2.36756320917629        0.97984628847128
C            6.24585926936453       -3.60747044901869        1.21376205407513
C            4.86307239755519       -1.50847251394603       -0.12287621059855
C           -0.19627015584587       -1.33980401495778       -0.73362470202396
C           -3.98236157795772        3.05863346882359        1.05401442825878
C           -4.27665570219355        3.68599694603533        2.41934812601681
C           -3.46906875791613        4.11459829175846        0.07727120529458
H           -4.73585084334406        1.10597480530037       -0.67479710469263
H           -6.82034736635937        0.31419391322048       -1.43736135579777
H           -6.89946043103527       -0.83361479811975       -2.79738350634373
H           -5.52537107474869        0.28877491579249       -2.66858732175193
H           -4.50066402633275       -4.37795450219952        1.74238968274634
H           -4.70171696117177       -5.30651536936771        0.23658809913450
H           -3.11698397654978       -4.60548800815951        0.63923252648497
H           -2.87376946700522       -2.62395025747610        1.94780448395254
H           -2.21402369707619       -0.35255976782030        2.45543797406264
H           -2.71573911786158        2.40031321537888       -2.93118058202917
H           -1.20646464881506        3.19969163594238       -2.25203849391351
H           -2.10631172701523        0.61673473682457       -1.14194819336972
H           -1.39576086628653        0.34929258973048       -2.68594098416855
H           -1.10064607803805        1.29814821070501        1.93189093314525
H            0.51206154251934        1.92752036225366       -1.12966315470169
H            1.92260811115943       -0.68120849562269        0.70711177844944
H            2.12413249671256        0.96020522258163        0.07527940923040
H            2.68149366514551        0.00460750242323       -2.17402062353666
H            2.59510848572685       -1.62604735588354       -1.48863113354788
H            4.48446299413426        1.53855805526021       -1.52292554885318
H            6.77934145022557        1.76975845046381       -0.73941255276767
H            8.48445249828146        1.84578809815970        0.89124660609863
H            9.08943295910343        1.19203975141090       -0.65869157563153
H            9.88947049342736        0.75361634873710        0.86980496974457
H            6.99407310835221       -4.21091411676336        1.72562900113207
H            5.36369395840858       -3.50830002401066        1.85552113381204
H            5.96255466401848       -4.10237745443597        0.27843084251250
H            4.31273786451921       -2.42375035591247        0.03331566818786
H           -0.35132111920208       -1.64172009488279       -1.77627833245671
H           -1.17600521188793       -1.27431760083980       -0.24980411283002
H            0.39452117850178       -2.10430806339368       -0.23218908670445
H           -4.92752516104983        2.65740707650518        0.68232960970093
H           -3.37343958938231        4.11972315488224        2.83621489565872
H           -4.67357276086166        2.95843254445132        3.12076746961188
H           -5.01505816661295        4.47430320185476        2.30393822886225
H           -2.56755487670048        4.56595655588890        0.47902584848440
H           -3.21966510504025        3.64095253702255       -0.87230487614924
H           -4.21213554678489        4.89375510472680       -0.08927941076547
H           -0.34919965113223        3.41675767411146        2.35614770358437
